src/model/BTE_2000/case2000_BRE_PWL.m
function mpc = case2000_BRE1
%CASE2000_BRE1

%% MATPOWER Case Format : Version 2
mpc.version = '2';

%%-----  Power Flow Data  -----%%
%% system MVA base
mpc.baseMVA = 100;

%% bus data
%	bus_i	type	Pd	Qd	Gs	Bs	area	Vm	Va	baseKV	zone	Vmax	Vmin	lam_P	lam_Q	mu_Vmax	mu_Vmin
mpc.bus = [
	3001001	1	20.78	5.89	0	0	1	1	2.18354336	115	9	1.1	0.9	15.9179	0.0000	0.0000	0.0000;
	3001002	1	15.41	4.37	0	0	1	1	28.885386	115	9	1.1	0.9	0.0577	0.0000	0.0000	0.0000;
	3001003	1	0	0	0	0	1	1	22.7814478	115	9	1.1	0.9	-0.7151	0.0000	0.0000	0.0000;
	3001004	2	0	0	0	0	1	1	13.6169328	230	9	1.1	0.9	-2.2616	0.0000	0.0000	0.0000;
	3001005	1	0	0	0	0	1	1	33.5287179	115	9	1.1	0.9	0.0381	0.0000	0.0000	0.0000;
	3001006	2	0	0	0	0	1	1	36.419004	13.8	9	1.1	0.9	0.0381	0.0000	0.0000	0.0000;
	3001007	1	7.01	1.99	0	-0.77	1	1	28.470257	115	9	1.1	0.9	0.0762	0.0000	0.0000	0.0000;
	3001008	1	0	0	0	0	1	1	31.6123074	115	9	1.1	0.9	-0.0000	0.0000	0.0000	0.0000;
	3001009	2	0	0	0	0	1	1	31.6123074	13.8	9	1.1	0.9	-0.0000	0.0000	0.0000	0.0000;
	3001010	1	0	0	0	-3.33	1	1	30.2041648	115	9	1.1	0.9	0.0524	0.0000	0.0000	0.0000;
	3001011	2	0	0	0	0	1	1	32.0639858	22	9	1.1	0.9	0.0524	0.0000	0.0000	0.0000;
	3001012	1	2.99	0.85	0	11.3	1	1	14.1842257	115	9	1.1	0.9	3.3740	0.0000	0.0000	0.0000;
	3001013	1	29.23	8.28	0	0	1	1	24.4576925	115	9	1.1	0.9	0.1175	0.0000	0.0000	0.0000;
	3001014	1	2.22	0.63	0	0	1	1	25.1248332	115	9	1.1	0.9	0.0780	0.0000	0.0000	0.0000;
	3001015	1	7.51	2.13	0	0	1	1	33.3741862	115	9	1.1	0.9	0.0626	0.0000	0.0000	0.0000;
	3001016	1	2.89	0.82	0	39.43	1	1	39.9349698	115	9	1.1	0.9	0.0000	0.0000	0.0000	0.0000;
	3001017	1	18.34	5.2	0	0	1	1	9.8630128	115	9	1.1	0.9	-9.1502	0.0000	0.0000	0.0000;
	3001018	1	0.07	0.02	0	0	1	1	11.4781504	115	9	1.1	0.9	-5.6743	0.0000	0.0000	0.0000;
	3001019	1	61.78	17.5	0	261.44	1	1	4.26057044	115	9	1.1	0.9	14.7509	0.0000	0.0000	0.0000;
	3001020	1	0	0	0	71.32	1	1	26.6186412	115	9	1.1	0.9	3.6515	0.0000	0.0000	0.0000;
	3001021	2	0	0	0	0	1	1	35.548154	13.8	9	1.1	0.9	3.6515	0.0000	0.0000	0.0000;
	3001022	1	0	0	0	0	1	1	24.7148945	115	9	1.1	0.9	-0.4984	0.0000	0.0000	0.0000;
	3001023	2	0	0	0	0	1	1	24.7148945	13.8	9	1.1	0.9	-0.4984	0.0000	0.0000	0.0000;
	3001024	1	63.04	17.86	0	0	1	1	12.8266319	115	9	1.1	0.9	-2.7779	0.0000	0.0000	0.0000;
	3001025	1	0	0	0	0	1	1	29.5502714	115	9	1.1	0.9	0.0000	0.0000	0.0000	0.0000;
	3001026	2	0	0	0	0	1	1	36.2114411	13.8	9	1.1	0.9	0.0000	0.0000	0.0000	0.0000;
	3001027	1	101.21	28.68	0	88.7	1	1	12.9060564	115	9	1.1	0.9	9.1709	0.0000	0.0000	0.0000;
	3001028	1	10.01	2.84	0	0	1	1	29.160765	115	9	1.1	0.9	0.0000	0.0000	0.0000	0.0000;
	3001029	1	83.18	23.57	0	61.2	1	1	14.4500847	115	9	1.1	0.9	-3.8703	0.0000	0.0000	0.0000;
	3001030	1	24.63	6.98	0	0	1	1	27.5278148	115	9	1.1	0.9	0.0243	0.0000	0.0000	0.0000;
	3001031	1	9.25	2.62	0	0	1	1	25.7286383	115	9	1.1	0.9	0.0970	0.0000	0.0000	0.0000;
	3001032	1	0	0	0	0	1	1	25.4346994	115	9	1.1	0.9	-0.1237	0.0000	0.0000	0.0000;
	3001033	2	0	0	0	61.95	1	1	18.1939682	230	9	1.1	0.9	7.4547	0.0000	0.0000	0.0000;
	3001034	1	0	0	0	0	1	1	39.431867	115	9	1.1	0.9	0.0241	0.0000	0.0000	0.0000;
	3001035	2	0	0	0	0	1	1	43.8129315	13.8	9	1.1	0.9	0.0241	0.0000	0.0000	0.0000;
	3001036	1	13.6	3.85	0	0	1	1	26.6112064	115	9	1.1	0.9	-0.0979	0.0000	0.0000	0.0000;
	3001037	1	102.24	28.97	0	0	1	1	5.61858729	115	9	1.1	0.9	22.4305	0.0000	0.0000	0.0000;
	3001038	1	0	0	0	0	1	1	29.9421704	115	9	1.1	0.9	-0.0000	0.0000	0.0000	0.0000;
	3001039	2	0	0	0	0	1	1	31.3836167	22	9	1.1	0.9	-0.0000	0.0000	0.0000	0.0000;
	3001040	1	44.36	12.57	0	0	1	1	14.2184768	115	9	1.1	0.9	5.7862	0.0000	0.0000	0.0000;
	3001041	1	0	0	0	0	1	1	38.1159279	115	9	1.1	0.9	0.1598	0.0000	0.0000	0.0000;
	3001042	2	0	0	0	0	1	1	45.8846266	13.8	9	1.1	0.9	0.1598	0.0000	0.0000	0.0000;
	3001043	2	0	0	0	0	1	1	42.4430611	13.8	9	1.1	0.9	0.1598	0.0000	0.0000	0.0000;
	3001044	1	14.68	4.16	0	0	1	1	23.9660319	115	9	1.1	0.9	-0.0000	0.0000	0.0000	0.0000;
	3001045	1	98.56	27.93	0	0	1	1	3.56517114	115	9	1.1	0.9	14.1940	0.0000	0.0000	0.0000;
	3001046	1	11.08	3.14	0	13.12	1	1	17.0761609	115	9	1.1	0.9	-1.1737	0.0000	0.0000	0.0000;
	3001047	1	0	0	0	0	1	1	23.0173375	115	9	1.1	0.9	0.1269	0.0000	0.0000	0.0000;
	3001048	2	0	0	0	0	1	1	26.6931744	18	9	1.1	0.9	0.1269	0.0000	0.0000	0.0000;
	3001049	2	0	0	0	0	1	1	29.6037709	18	9	1.1	0.9	0.1269	0.0000	0.0000	0.0000;
	3001050	2	0	0	0	0	1	1	24.544944	18	9	1.1	0.9	0.1269	0.0000	0.0000	0.0000;
	3001051	2	0	0	0	0	1	1	24.9888887	18	9	1.1	0.9	0.1269	0.0000	0.0000	0.0000;
	3001052	2	0	0	0	0	1	1	24.2866293	18	9	1.1	0.9	0.1269	0.0000	0.0000	0.0000;
	3001053	2	0	0	0	0	1	1	16.945937	230	9	1.1	0.9	5.4590	0.0000	0.0000	0.0000;
	3001054	1	14.99	4.25	0	0	1	1	22.1819573	115	9	1.1	0.9	0.2476	0.0000	0.0000	0.0000;
	3001055	1	3.98	1.13	0	0	1	1	22.1396976	115	9	1.1	0.9	-0.6176	0.0000	0.0000	0.0000;
	3001056	1	0	0	0	33.22	1	1	23.8352263	115	9	1.1	0.9	0.4961	0.0000	0.0000	0.0000;
	3001057	2	0	0	0	0	1	1	32.8558739	18	9	1.1	0.9	0.4961	0.0000	0.0000	0.0000;
	3001058	1	13.46	3.81	0	0	1	1	29.1860412	115	9	1.1	0.9	0.1964	0.0000	0.0000	0.0000;
	3001059	2	0	0	0	0	1	1	29.630623	22	9	1.1	0.9	0.1964	0.0000	0.0000	0.0000;
	3001060	2	0	0	0	0	1	1	29.3196114	22	9	1.1	0.9	0.1964	0.0000	0.0000	0.0000;
	3001061	1	0	0	0	0	1	1	32.3286883	115	9	1.1	0.9	0.0000	0.0000	0.0000	0.0000;
	3001062	2	0	0	0	0	1	1	32.3286883	13.8	9	1.1	0.9	0.0000	0.0000	0.0000	0.0000;
	3001063	2	0	0	0	0	1	1	42.1291879	13.8	9	1.1	0.9	0.0000	0.0000	0.0000	0.0000;
	3001064	1	123.76	35.07	0	0	1	1	1.76403794	115	9	1.1	0.9	15.3653	0.0000	0.0000	0.0000;
	3001065	1	0	0	0	0	1	1	37.5787701	115	9	1.1	0.9	0.2087	0.0000	0.0000	0.0000;
	3001066	2	0	0	0	0	1	1	47.6335349	13.8	9	1.1	0.9	0.2087	0.0000	0.0000	0.0000;
	3001067	1	101.55	28.77	0	0	1	1	36.752957	115	9	1.1	0.9	0.1216	0.0000	0.0000	0.0000;
	3001068	1	59.4	16.83	0	0	1	1	31.7247279	115	9	1.1	0.9	-0.0348	0.0000	0.0000	0.0000;
	3001069	1	0	0	0	0	1	1	31.827624	115	9	1.1	0.9	0.1040	0.0000	0.0000	0.0000;
	3001070	2	0	0	0	0	1	1	38.2648048	13.8	9	1.1	0.9	0.1040	0.0000	0.0000	0.0000;
	3001071	1	91.46	25.91	0	0	1	1	2.67974673	115	9	1.1	0.9	16.3513	0.0000	0.0000	0.0000;
	3001072	2	0	0	0	0	1	1	5.50373904	18	9	1.1	0.9	16.3513	0.0000	0.0000	0.0000;
	3001073	2	0	0	0	0	1	1	7.38717118	18	9	1.1	0.9	16.3513	0.0000	0.0000	0.0000;
	3001074	2	0	0	0	0	1	1	6.79238575	18	9	1.1	0.9	16.3513	0.0000	0.0000	0.0000;
	3001075	2	0	0	0	0	1	1	5.97137711	18	9	1.1	0.9	16.3513	0.0000	0.0000	0.0000;
	3001076	2	0	0	0	0	1	1	4.31020516	18	9	1.1	0.9	16.3513	0.0000	0.0000	0.0000;
	3001077	2	0	0	0	0	1	1	6.65830309	18	9	1.1	0.9	16.3513	0.0000	0.0000	0.0000;
	3001078	2	0	0	0	0	1	1	5.81292374	18	9	1.1	0.9	16.3513	0.0000	0.0000	0.0000;
	3001079	2	0	0	0	0	1	1	-20.0334799	500	9	1.1	0.9	22.8333	0.0000	0.0000	0.0000;
	3001080	2	0	0	0	0	1	1	5.99693859	18	9	1.1	0.9	16.3513	0.0000	0.0000	0.0000;
	3001081	2	0	0	0	42.78	1	1	13.9560177	230	9	1.1	0.9	7.2751	0.0000	0.0000	0.0000;
	3001082	2	0	0	0	0	1	1	33.394746	115	9	1.1	0.9	0.0357	0.0000	0.0000	0.0000;
	3001083	1	39.95	11.32	0	32.03	1	1	27.9634636	115	9	1.1	0.9	0.0175	0.0000	0.0000	0.0000;
	3001084	2	0	0	0	0	1	1	23.2664697	115	9	1.1	0.9	5.8021	0.0000	0.0000	0.0000;
	3001085	1	21.3	6.03	0	0	1	1	20.4215912	115	9	1.1	0.9	0.0912	0.0000	0.0000	0.0000;
	3001086	1	39.67	11.24	0	37.39	1	1	20.2681486	115	9	1.1	0.9	0.1026	0.0000	0.0000	0.0000;
	3001087	1	0.91	0.26	0	4.9	1	1	23.9227477	115	9	1.1	0.9	0.3928	0.0000	0.0000	0.0000;
	3001088	2	0	0	0	0	1	1	28.7113582	115	9	1.1	0.9	-0.0720	0.0000	0.0000	0.0000;
	3001089	1	40.6	11.5	0	0	1	1	20.3508256	115	9	1.1	0.9	-0.3034	0.0000	0.0000	0.0000;
	3001090	2	0	0	0	0	1	1	16.3965153	115	9	1.1	0.9	-0.0000	0.0000	0.0000	0.0000;
	3001091	1	11.62	3.29	0	0	1	1	20.6948971	161	9	1.1	0.9	4.2111	0.0000	0.0000	0.0000;
	3002001	1	48.36	13.7	0	0	2	1	-51.8299534	161	11	1.1	0.9	23.0195	0.0000	0.0000	0.0000;
	3002002	1	0	0	0	0	2	1	-50.4724698	500	11	1.1	0.9	23.0114	0.0000	0.0000	0.0000;
	3002003	1	0	0	0	0	2	1	-52.3915288	161	11	1.1	0.9	23.0121	0.0000	0.0000	0.0000;
	3002004	2	0	0	0	0	2	1	-49.4851854	13.8	11	1.1	0.9	23.0114	0.0000	0.0000	0.0000;
	3002005	2	0	0	0	0	2	1	-49.3181687	13.8	11	1.1	0.9	23.0114	0.0000	0.0000	0.0000;
	3002006	2	0	0	0	0	2	1	-48.668285	13.8	11	1.1	0.9	23.0114	0.0000	0.0000	0.0000;
	3002007	1	9.54	2.7	0	0	2	1	-51.5345172	161	11	1.1	0.9	23.0199	0.0000	0.0000	0.0000;
	3002008	1	8.06	2.28	0	0	2	1	14.1827419	161	10	1.1	0.9	1.3838	0.0000	0.0000	0.0000;
	3002009	1	39.14	11.09	0	131.5	2	1	-20.2122617	161	11	1.1	0.9	22.6594	0.0000	0.0000	0.0000;
	3002010	1	56.81	16.09	0	28.69	2	1	9.31598345	161	10	1.1	0.9	-0.0000	0.0000	0.0000	0.0000;
	3002011	1	0	0	0	0	2	1	5.62003972	500	10	1.1	0.9	20.0256	0.0000	0.0000	0.0000;
	3002012	1	0	0	0	0	2	1	14.9862152	161	10	1.1	0.9	0.0000	0.0000	0.0000	0.0000;
	3002013	2	0	0	0	0	2	1	8.94971634	18	10	1.1	0.9	20.0256	0.0000	0.0000	0.0000;
	3002014	1	25.43	7.2	0	0	2	1	14.9059765	161	10	1.1	0.9	2.1864	0.0000	0.0000	0.0000;
	3002015	1	4.69	1.33	0	0	2	1	-48.5614872	161	11	1.1	0.9	22.8605	0.0000	0.0000	0.0000;
	3002016	1	69.27	19.63	0	0	2	1	-57.8735857	161	11	1.1	0.9	23.0095	0.0000	0.0000	0.0000;
	3002017	1	0	0	0	-17.18	2	1	5.22245692	500	10	1.1	0.9	14.8420	0.0000	0.0000	0.0000;
	3002018	1	0	0	0	0	2	1	9.36995275	161	10	1.1	0.9	9.7504	0.0000	0.0000	0.0000;
	3002019	2	0	0	0	0	2	1	6.69883165	20	10	1.1	0.9	14.8420	0.0000	0.0000	0.0000;
	3002020	1	47.97	13.59	0	0	2	1	-23.1750218	161	11	1.1	0.9	22.3337	0.0000	0.0000	0.0000;
	3002021	1	0	0	0	0	2	1	-48.6974426	500	11	1.1	0.9	23.0196	0.0000	0.0000	0.0000;
	3002022	1	11.56	3.28	0	0	2	1	-50.4941207	161	11	1.1	0.9	23.0196	0.0000	0.0000	0.0000;
	3002023	2	0	0	0	0	2	1	-48.2095691	13.8	11	1.1	0.9	23.0196	0.0000	0.0000	0.0000;
	3002024	2	0	0	0	0	2	1	-48.0027313	13.8	11	1.1	0.9	23.0196	0.0000	0.0000	0.0000;
	3002025	1	39.62	11.23	0	0	2	1	-22.4977229	161	11	1.1	0.9	22.3426	0.0000	0.0000	0.0000;
	3002026	1	18.57	5.26	0	0	2	1	8.74657974	161	10	1.1	0.9	9.8996	0.0000	0.0000	0.0000;
	3002027	1	3.55	1.01	0	0	2	1	-52.1721623	161	11	1.1	0.9	23.0195	0.0000	0.0000	0.0000;
	3002028	1	14.24	4.03	0	0	2	1	-25.5330784	161	11	1.1	0.9	22.4654	0.0000	0.0000	0.0000;
	3002029	1	3.2	0.91	0	0	2	1	16.6341047	161	10	1.1	0.9	2.8255	0.0000	0.0000	0.0000;
	3002030	1	47.15	13.36	0	0	2	1	-55.0252083	161	11	1.1	0.9	23.0190	0.0000	0.0000	0.0000;
	3002031	1	5.77	1.63	0	0	2	1	16.5271941	161	10	1.1	0.9	1.3460	0.0000	0.0000	0.0000;
	3002032	1	3.35	0.95	0	0	2	1	-51.0091473	161	11	1.1	0.9	23.0200	0.0000	0.0000	0.0000;
	3002033	1	13.57	3.85	0	0	2	1	-55.9667847	161	11	1.1	0.9	23.0186	0.0000	0.0000	0.0000;
	3002034	1	5.34	1.51	0	0	2	1	-56.5984768	161	11	1.1	0.9	23.0104	0.0000	0.0000	0.0000;
	3002035	1	4.68	1.33	0	0	2	1	9.59271695	161	10	1.1	0.9	-0.1594	0.0000	0.0000	0.0000;
	3002036	1	41.59	11.78	0	0	2	1	-21.9801563	161	11	1.1	0.9	22.3631	0.0000	0.0000	0.0000;
	3002037	1	3.5	0.99	0	0	2	1	-48.8636233	161	11	1.1	0.9	22.8684	0.0000	0.0000	0.0000;
	3002038	1	2.6	0.74	0	0	2	1	-53.1536484	161	11	1.1	0.9	23.0133	0.0000	0.0000	0.0000;
	3002039	1	5.56	1.58	0	0	2	1	-45.9602138	161	11	1.1	0.9	22.8405	0.0000	0.0000	0.0000;
	3002040	1	15.9	4.51	0	0	2	1	-51.1736649	161	11	1.1	0.9	23.0198	0.0000	0.0000	0.0000;
	3002041	1	0	0	0	0	2	1	17.3172756	161	10	1.1	0.9	1.3293	0.0000	0.0000	0.0000;
	3002042	2	0	0	0	0	2	1	20.8956354	18	10	1.1	0.9	1.3293	0.0000	0.0000	0.0000;
	3002043	1	4.24	1.2	0	0	2	1	-57.1562068	161	11	1.1	0.9	23.0100	0.0000	0.0000	0.0000;
	3002044	1	27.4	7.76	0	0	2	1	-52.5603582	161	11	1.1	0.9	22.9416	0.0000	0.0000	0.0000;
	3002045	1	22.61	6.4	0	0	2	1	-23.7141907	161	11	1.1	0.9	22.3606	0.0000	0.0000	0.0000;
	3002046	1	22.13	6.27	0	0	2	1	-55.942129	161	11	1.1	0.9	23.0107	0.0000	0.0000	0.0000;
	3002047	1	14.96	4.24	0	0	2	1	-52.9831383	161	11	1.1	0.9	23.0119	0.0000	0.0000	0.0000;
	3002048	1	6.42	1.82	0	0	2	1	20.3195761	161	10	1.1	0.9	2.3129	0.0000	0.0000	0.0000;
	3002049	1	11.57	3.28	0	0	2	1	-9.89228339	161	10	1.1	0.9	-0.0000	0.0000	0.0000	0.0000;
	3002050	1	3.66	1.04	0	0	2	1	-54.4753587	161	11	1.1	0.9	23.0192	0.0000	0.0000	0.0000;
	3002051	1	17.85	5.06	0	0	2	1	-35.2946103	161	11	1.1	0.9	22.6334	0.0000	0.0000	0.0000;
	3002052	1	24.84	7.04	0	0	2	1	13.9623566	161	10	1.1	0.9	0.7153	0.0000	0.0000	0.0000;
	3002053	1	29.13	8.25	0	0	2	1	-46.6774054	161	11	1.1	0.9	22.9155	0.0000	0.0000	0.0000;
	3002054	1	0	0	0	0	2	1	-21.6756008	500	11	1.1	0.9	22.2356	0.0000	0.0000	0.0000;
	3002055	1	49.62	14.06	0	0	2	1	-22.2385248	161	11	1.1	0.9	22.2971	0.0000	0.0000	0.0000;
	3002056	2	0	0	0	0	2	1	-21.4582321	18	11	1.1	0.9	22.2356	0.0000	0.0000	0.0000;
	3002057	2	0	0	0	0	2	1	-18.4519649	18	11	1.1	0.9	22.2356	0.0000	0.0000	0.0000;
	3002058	1	0	0	0	0	2	1	17.2246847	161	10	1.1	0.9	2.7814	0.0000	0.0000	0.0000;
	3002059	2	0	0	0	0	2	1	21.8473082	13.8	10	1.1	0.9	2.7814	0.0000	0.0000	0.0000;
	3002060	1	3.8	1.08	0	0	2	1	-53.3235762	161	11	1.1	0.9	23.0192	0.0000	0.0000	0.0000;
	3002061	1	0	0	0	0	2	1	-2.19975776	161	10	1.1	0.9	-0.0000	0.0000	0.0000	0.0000;
	3002062	2	0	0	0	0	2	1	-2.19975776	18	10	1.1	0.9	-0.0000	0.0000	0.0000	0.0000;
	3002063	1	65.62	18.59	0	67.92	2	1	-55.0066226	161	11	1.1	0.9	23.0111	0.0000	0.0000	0.0000;
	3002064	1	10.05	2.85	0	0	2	1	-51.919706	161	11	1.1	0.9	23.0194	0.0000	0.0000	0.0000;
	3002065	1	78.36	22.2	0	90.13	2	1	-51.7626722	161	11	1.1	0.9	22.9020	0.0000	0.0000	0.0000;
	3002066	1	7.11	2.02	0	0	2	1	10.3264275	161	10	1.1	0.9	-0.2222	0.0000	0.0000	0.0000;
	3002067	1	53.97	15.29	0	0	2	1	-22.5370776	161	11	1.1	0.9	22.4053	0.0000	0.0000	0.0000;
	3002068	1	5.76	1.63	0	0	2	1	-20.8976155	161	11	1.1	0.9	22.6665	0.0000	0.0000	0.0000;
	3002069	1	21.92	6.21	0	87.65	2	1	-57.4199059	161	11	1.1	0.9	23.0089	0.0000	0.0000	0.0000;
	3002070	1	0	0	0	0	2	1	-20.7495609	161	11	1.1	0.9	22.7636	0.0000	0.0000	0.0000;
	3002071	2	0	0	0	0	2	1	-15.8438963	18	11	1.1	0.9	22.7636	0.0000	0.0000	0.0000;
	3002072	1	9.71	2.75	0	0	2	1	-55.6436486	161	11	1.1	0.9	23.0046	0.0000	0.0000	0.0000;
	3002073	1	0	0	0	0	2	1	11.1510603	161	10	1.1	0.9	-0.2705	0.0000	0.0000	0.0000;
	3002074	1	0	0	0	0	2	1	12.2923793	115	10	1.1	0.9	0.1067	0.0000	0.0000	0.0000;
	3002075	1	0	0	0	0	2	1	12.2923793	115	10	1.1	0.9	0.1067	0.0000	0.0000	0.0000;
	3002076	2	0	0	0	0	2	1	11.1510603	24	10	1.1	0.9	-0.2705	0.0000	0.0000	0.0000;
	3002077	1	0	0	0	0	2	1	-45.3199631	161	11	1.1	0.9	22.8322	0.0000	0.0000	0.0000;
	3002078	2	0	0	0	0	2	1	-40.7183241	13.8	11	1.1	0.9	22.8322	0.0000	0.0000	0.0000;
	3002079	1	4.48	1.27	0	0	2	1	13.7102986	161	10	1.1	0.9	0.9525	0.0000	0.0000	0.0000;
	3002080	1	16.93	4.8	0	0	2	1	-40.2356561	161	11	1.1	0.9	22.7258	0.0000	0.0000	0.0000;
	3002081	1	4.46	1.26	0	0	2	1	-54.4797329	161	11	1.1	0.9	23.0154	0.0000	0.0000	0.0000;
	3002082	1	59.03	16.73	0	0	2	1	-21.4594705	161	11	1.1	0.9	22.4351	0.0000	0.0000	0.0000;
	3002083	2	0	0	0	0	2	1	-19.8197799	20	11	1.1	0.9	22.4351	0.0000	0.0000	0.0000;
	3002084	2	0	0	0	0	2	1	-19.3943015	20	11	1.1	0.9	22.4351	0.0000	0.0000	0.0000;
	3002085	2	0	0	0	0	2	1	-19.8006431	20	11	1.1	0.9	22.4351	0.0000	0.0000	0.0000;
	3002086	1	2.19	0.62	0	0	2	1	-43.7724583	161	11	1.1	0.9	22.7961	0.0000	0.0000	0.0000;
	3002087	1	7.9	2.24	0	0	2	1	13.5103386	161	10	1.1	0.9	0.4989	0.0000	0.0000	0.0000;
	3002088	1	0	0	0	0	2	1	-20.6488347	161	11	1.1	0.9	22.7020	0.0000	0.0000	0.0000;
	3002089	2	0	0	0	0	2	1	-15.8468479	24	11	1.1	0.9	22.7020	0.0000	0.0000	0.0000;
	3002090	1	2.42	0.69	0	0	2	1	-52.6485848	161	11	1.1	0.9	23.0195	0.0000	0.0000	0.0000;
	3002091	1	17.05	4.83	0	0	2	1	8.94120578	161	10	1.1	0.9	-0.0795	0.0000	0.0000	0.0000;
	3002092	1	24.11	6.83	0	0	2	1	-54.1107899	161	11	1.1	0.9	23.0115	0.0000	0.0000	0.0000;
	3002093	1	0	0	0	0	2	1	13.5832166	161	10	1.1	0.9	4.5780	0.0000	0.0000	0.0000;
	3002094	2	0	0	0	0	2	1	14.1754831	13.8	10	1.1	0.9	4.5780	0.0000	0.0000	0.0000;
	3002095	2	0	0	0	0	2	1	15.9067295	13.8	10	1.1	0.9	4.5780	0.0000	0.0000	0.0000;
	3002096	1	0	0	0	-63.14	2	1	11.8010213	500	10	1.1	0.9	9.7787	0.0000	0.0000	0.0000;
	3002097	1	0	0	0	0	2	1	12.6958829	230	10	1.1	0.9	8.5756	0.0000	0.0000	0.0000;
	3002098	1	0	0	0	0	2	1	19.453846	161	10	1.1	0.9	4.8883	0.0000	0.0000	0.0000;
	3002099	2	0	0	0	0	2	1	12.0002388	18	10	1.1	0.9	9.7787	0.0000	0.0000	0.0000;
	3002100	2	0	0	0	0	2	1	15.4407357	18	10	1.1	0.9	9.7787	0.0000	0.0000	0.0000;
	3002101	1	0	0	0	0	2	1	-51.4214206	500	11	1.1	0.9	23.0086	0.0000	0.0000	0.0000;
	3002102	1	0	0	0	0	2	1	-52.6919437	161	11	1.1	0.9	22.9983	0.0000	0.0000	0.0000;
	3002103	2	0	0	0	0	2	1	-50.8452505	20	11	1.1	0.9	23.0086	0.0000	0.0000	0.0000;
	3002104	2	0	0	0	0	2	1	-50.6666931	20	11	1.1	0.9	23.0086	0.0000	0.0000	0.0000;
	3002105	2	0	0	0	0	2	1	-50.2304237	20	11	1.1	0.9	23.0086	0.0000	0.0000	0.0000;
	3002106	1	14.4	4.08	0	0	2	1	-56.4424087	161	11	1.1	0.9	23.0182	0.0000	0.0000	0.0000;
	3002107	1	74.15	21.01	0	0	2	1	-53.6123632	161	11	1.1	0.9	22.9939	0.0000	0.0000	0.0000;
	3002108	1	2.14	0.61	0	0	2	1	-7.31305012	161	10	1.1	0.9	0.0000	0.0000	0.0000	0.0000;
	3002109	1	33.81	9.58	0	0	2	1	-22.7253801	161	11	1.1	0.9	22.5807	0.0000	0.0000	0.0000;
...
];

%% generator data
%	bus	Pg	Qg	Qmax	Qmin	Vg	mBase	status	Pmax	Pmin	Pc1	Pc2	Qc1min	Qc1max	Qc2min	Qc2max	ramp_agc	ramp_10	ramp_30	ramp_q	apf	mu_Pmax	mu_Pmin	mu_Qmax	mu_Qmin
mpc.gen = [
	3001004	4.49029253e-11	-30.38	44.94	-30.38	1.01	253.2	1	211	0	0	0	0	0	0	0	211	2110	6330	0	211	0.0000	2.2616	0.0000	0.0000;
	3001006	34.3	-4.94	7.31	-4.94	1	41.16	1	34.3	0	0	0	0	0	0	0	34.3	343	1029	0	34.3	0.0381	0.0000	0.0000	0.0000;
	3001009	0	-11.88	17.57	-11.88	1	99	1	82.5	0	0	0	0	0	0	0	82.5	825	2475	0	82.5	0.0000	0.0000	0.0000	0.0000;
	3001011	10	0	0	0	1	12	1	10	0	0	0	0	0	0	0	10	100	300	0	10	0.0524	0.0000	0.0000	0.0000;
	3001021	199.5	-28.73	42.49	-28.73	1	239.4	1	199.5	0	0	0	0	0	0	0	199.5	1995	5985	0	199.5	3.6515	0.0000	0.0000	0.0000;
	3001023	2.03893726e-10	-1.36	38.34	-25.92	1.01	216	1	180	0	0	0	0	0	0	0	180	1800	5400	0	180	0.0000	0.4984	0.0000	0.0000;
	3001026	64.4238854	-7.89	26.45	-17.88	1	149.04	1	124.2	0	0	0	0	0	0	0	124.2	1242	3726	0	124.2	0.0000	0.0000	0.0000	0.0000;
	3001033	278	-40.03	59.21	-40.03	1	333.6	1	278	0	0	0	0	0	0	0	278	2780	8340	0	278	7.4547	0.0000	0.0000	0.0000;
	3001035	90	-12.96	19.17	-12.96	1	108	1	90	0	0	0	0	0	0	0	90	900	2700	0	90	0.0241	0.0000	0.0000	0.0000;
	3001039	29.2841171	-21.24	31.42	-21.24	1	177	1	147.5	0	0	0	0	0	0	0	147.5	1475	4425	0	147.5	0.0000	0.0000	0.0000	0.0000;
	3001042	121.9	0	25.96	-17.55	1	146.28	1	121.9	0	0	0	0	0	0	0	121.9	1219	3657	0	121.9	0.1598	0.0000	0.0000	0.0000;
	3001043	58.8	-4.93	12.52	-8.47	1	70.56	1	58.8	0	0	0	0	0	0	0	58.8	588	1764	0	58.8	0.1598	0.0000	0.0000	0.0000;
	3001048	97.56	0	165.53	-36.1	1	390.24	1	325.2	97.56	0	0	0	0	0	0	16.26	162.6	487.8	0	325.2	0.0000	25.5210	0.0000	0.0000;
	3001049	97.56	0	165.53	-36.1	1	390.24	1	325.2	97.56	0	0	0	0	0	0	16.26	162.6	487.8	0	325.2	0.0000	25.5210	0.0000	0.0000;
	3001050	26.82	-9.92	45.5	-9.92	1	107.28	1	89.4	26.82	0	0	0	0	0	0	8.94	89.4	268.2	0	89.4	0.0000	23.7612	0.0000	0.0000;
	3001051	26.82	-7.94	45.5	-9.92	1	107.28	1	89.4	26.82	0	0	0	0	0	0	8.94	89.4	268.2	0	89.4	0.0000	23.7612	0.0000	0.0000;
	3001052	26.82	-9.92	45.5	-9.92	1	107.28	1	89.4	26.82	0	0	0	0	0	0	8.94	89.4	268.2	0	89.4	0.0000	23.7612	0.0000	0.0000;
	3001053	53.64	0	91.01	-19.85	1	214.56	1	178.8	53.64	0	0	0	0	0	0	8.94	89.4	268.2	0	178.8	0.0000	19.0958	0.0000	0.0000;
	3001057	120	0	25.56	-17.28	1	144	1	120	0	0	0	0	0	0	0	120	1200	3600	0	120	0.4961	0.0000	0.0000	0.0000;
	3001059	1.68	0	2.85	-0.62	1.04	6.72	1	5.6	1.68	0	0	0	0	0	0	1.4	14	42	0	5.6	0.0000	23.0656	0.0000	0.0000;
	3001060	0.6	0	1.02	-0.22	1.04	2.4	1	2	0.6	0	0	0	0	0	0	0.6	6	18	0	2	0.0000	23.0393	0.0000	0.0000;
	3001062	0	0	0	0	1.01	1.8	1	1.5	0	0	0	0	0	0	0	1.5	15	45	0	1.5	0.0000	0.0000	0.0000	0.0000;
	3001063	164.329892	0	0	0	1.01	276	1	230	0	0	0	0	0	0	0	230	2300	6900	0	230	0.0000	0.0000	0.0000	0.0000;
	3001066	142.5	-4.79	30.35	-20.52	1	171	1	142.5	0	0	0	0	0	0	0	142.5	1425	4275	0	142.5	0.2087	0.0000	0.0000	0.0000;
	3001070	160.5	16.42	34.19	-23.11	1.04	192.6	1	160.5	0	0	0	0	0	0	0	160.5	1605	4815	0	160.5	0.1040	0.0000	0.0000	0.0000;
	3001072	57.64	10.71	97.8	-21.33	1.01	230.56	1	192.13	57.64	0	0	0	0	0	0	9.6065	96.065	288.195	0	192.13	0.0000	8.3038	0.0000	0.0000;
	3001073	57.64	23.64	97.8	-21.33	1.01	230.56	1	192.13	57.64	0	0	0	0	0	0	9.6065	96.065	288.195	0	192.13	0.0000	8.3038	0.0000	0.0000;
	3001074	57.64	18.7	97.8	-21.33	1.01	230.56	1	192.13	57.64	0	0	0	0	0	0	9.6065	96.065	288.195	0	192.13	0.0000	8.3038	0.0000	0.0000;
	3001075	57.64	17.01	97.8	-21.33	1.01	230.56	1	192.13	57.64	0	0	0	0	0	0	9.6065	96.065	288.195	0	192.13	0.0000	8.3038	0.0000	0.0000;
	3001076	57.64	0	97.8	-21.33	1.01	230.56	1	192.13	57.64	0	0	0	0	0	0	9.6065	96.065	288.195	0	192.13	0.0000	8.3038	0.0000	0.0000;
	3001077	57.64	0	97.8	-21.33	1.01	230.56	1	192.13	57.64	0	0	0	0	0	0	9.6065	96.065	288.195	0	192.13	0.0000	8.3038	0.0000	0.0000;
	3001078	28.65	9.08	48.61	-10.6	1.01	114.6	1	95.5	28.65	0	0	0	0	0	0	9.55	95.5	286.5	0	95.5	0.0000	7.5822	0.0000	0.0000;
	3001079	28.65	-10.6	48.61	-10.6	1.01	114.6	1	95.5	28.65	0	0	0	0	0	0	9.55	95.5	286.5	0	95.5	0.0000	1.1001	0.0000	0.0000;
	3001080	28.65	6.37	48.61	-10.6	1.01	114.6	1	95.5	28.65	0	0	0	0	0	0	9.55	95.5	286.5	0	95.5	0.0000	7.5822	0.0000	0.0000;
	3001081	85.95	0	145.83	-31.8	1.01	343.8	1	286.5	85.95	0	0	0	0	0	0	14.325	143.25	429.75	0	286.5	0.0000	18.0837	0.0000	0.0000;
	3001082	150	-21.6	31.95	-21.6	1	180	1	150	0	0	0	0	0	0	0	150	1500	4500	0	150	0.0357	0.0000	0.0000	0.0000;
	3001084	115.5	24.6	24.6	-16.63	1.04	138.6	1	115.5	0	0	0	0	0	0	0	115.5	1155	3465	0	115.5	5.8021	0.0000	0.0000	0.0000;
	3001088	1.41024939e-09	-8.13	15.97	-10.8	1	90	1	75	0	0	0	0	0	0	0	75	750	2250	0	75	0.0000	0.0720	0.0000	0.0000;
	3001090	0	9.6	32.48	-21.96	1.02	183	1	152.5	0	0	0	0	0	0	0	152.5	1525	4575	0	152.5	0.0000	0.0000	0.0000	0.0000;
	3001090	0	7.67	7.67	-5.18	1.02	43.2	1	36	0	0	0	0	0	0	0	36	360	1080	0	36	0.0000	0.0000	0.0000	0.0000;
	3002004	117.54	0	199.43	-43.49	1.02	470.16	1	391.8	117.54	0	0	0	0	0	0	19.59	195.9	587.7	0	391.8	0.0000	15.0156	0.0000	0.0000;
	3002005	117.54	0	199.43	-43.49	1.02	470.16	1	391.8	117.54	0	0	0	0	0	0	19.59	195.9	587.7	0	391.8	0.0000	15.0156	0.0000	0.0000;
	3002006	117.54	0	199.43	-43.49	1.02	470.16	1	391.8	117.54	0	0	0	0	0	0	19.59	195.9	587.7	0	391.8	0.0000	15.0156	0.0000	0.0000;
	3002013	200.6	-28.89	42.73	-28.89	1	240.72	1	200.6	0	0	0	0	0	0	0	200.6	2006	6018	0	200.6	20.0256	0.0000	0.0000	0.0000;
	3002019	218	0	46.43	-31.39	1.04	261.6	1	218	0	0	0	0	0	0	0	218	2180	6540	0	218	14.8420	0.0000	0.0000	0.0000;
	3002023	25	3.63	42.42	-9.25	1.02	100	1	83.33	25	0	0	0	0	0	0	8.333	83.33	249.99	0	83.33	0.0000	0.2159	0.0000	0.0000;
	3002024	50	6.12	84.83	-18.5	1.02	200	1	166.67	50	0	0	0	0	0	0	8.3335	83.335	250.005	0	166.67	0.0000	0.8231	0.0000	0.0000;
	3002042	79.6	-11.46	16.95	-11.46	1.01	95.52	1	79.6	0	0	0	0	0	0	0	79.6	796	2388	0	79.6	1.3293	0.0000	0.0000	0.0000;
	3002056	6	0	2.8	-0.73	0.99	7.2	1	6	1.8	0	0	0	0	0	0	0.48	4.8	14.4	0	6	1.8308	0.0000	0.0000	0.0000;
	3002057	425.912641	-79.15	335.52	-87.84	0.99	864	1	720	216	0	0	0	0	0	0	4.32	43.2	129.6	0	720	0.0000	0.0000	0.0000	0.0000;
	3002059	80	-11.52	17.04	-11.52	1	96	1	80	0	0	0	0	0	0	0	80	800	2400	0	80	2.7814	0.0000	0.0000	0.0000;
	3002062	0	-15.32	28.84	-19.5	1.02	162.48	1	135.4	0	0	0	0	0	0	0	135.4	1354	4062	0	135.4	0.0000	0.0000	0.0000	0.0000;
	3002071	150	-5.4	31.95	-21.6	1	180	1	150	0	0	0	0	0	0	0	150	1500	4500	0	150	22.7636	0.0000	0.0000	0.0000;
	3002076	3.63735989e-10	6.39	6.39	-4.32	1.04	36	1	30	0	0	0	0	0	0	0	30	300	900	0	30	0.0000	0.2705	0.0000	0.0000;
	3002078	112.5	-8.99	23.96	-16.2	1.02	135	1	112.5	0	0	0	0	0	0	0	112.5	1125	3375	0	112.5	22.8322	0.0000	0.0000	0.0000;
	3002083	20	7.32	10.18	-2.22	1.02	24	1	20	6	0	0	0	0	0	0	4	40	120	0	20	0.5152	0.0000	0.0000	0.0000;
	3002084	20	0	10.18	-2.22	1.02	24	1	20	6	0	0	0	0	0	0	4	40	120	0	20	0.5152	0.0000	0.0000	0.0000;
	3002085	40	0	20.36	-4.44	1.02	48	1	40	12	0	0	0	0	0	0	6	60	180	0	40	0.3441	0.0000	0.0000	0.0000;
	3002089	67.6	-1.65	14.4	-9.73	1	81.12	1	67.6	0	0	0	0	0	0	0	67.6	676	2028	0	67.6	22.7020	0.0000	0.0000	0.0000;
	3002094	10	0	2.13	-1.44	1	12	1	10	0	0	0	0	0	0	0	10	100	300	0	10	4.5780	0.0000	0.0000	0.0000;
	3002095	79.5	0	16.93	-11.45	1	95.4	1	79.5	0	0	0	0	0	0	0	79.5	795	2385	0	79.5	4.5780	0.0000	0.0000	0.0000;
	3002099	10	-1.44	2.13	-1.44	1.02	12	1	10	0	0	0	0	0	0	0	10	100	300	0	10	9.7787	0.0000	0.0000	0.0000;
	3002100	150	-21.6	31.95	-21.6	1.02	180	1	150	0	0	0	0	0	0	0	150	1500	4500	0	150	9.7787	0.0000	0.0000	0.0000;
	3002103	80.32	0	136.28	-29.72	1	321.28	1	267.73	80.32	0	0	0	0	0	0	13.3865	133.865	401.595	0	267.73	0.0000	13.6321	0.0000	0.0000;
	3002104	80.32	0	136.28	-29.72	1	321.28	1	267.73	80.32	0	0	0	0	0	0	13.3865	133.865	401.595	0	267.73	0.0000	13.6321	0.0000	0.0000;
	3002105	80.32	0	136.28	-29.72	1	321.28	1	267.73	80.32	0	0	0	0	0	0	13.3865	133.865	401.595	0	267.73	0.0000	13.6321	0.0000	0.0000;
	3002115	55.41	-20.5	94.02	-20.5	1	221.66	1	184.72	55.41	0	0	0	0	0	0	9.236	92.36	277.08	0	184.72	0.0000	0.9539	0.0000	0.0000;
	3002116	55.41	-20.5	94.02	-20.5	1	221.66	1	184.72	55.41	0	0	0	0	0	0	9.236	92.36	277.08	0	184.72	0.0000	0.9539	0.0000	0.0000;
	3002117	55.41	-20.5	94.02	-20.5	1	221.66	1	184.72	55.41	0	0	0	0	0	0	9.236	92.36	277.08	0	184.72	0.0000	0.9539	0.0000	0.0000;
	3002118	55.41	-20.5	94.02	-20.5	1	221.66	1	184.72	55.41	0	0	0	0	0	0	9.236	92.36	277.08	0	184.72	0.0000	0.9539	0.0000	0.0000;
	3002119	55.41	-20.5	94.02	-20.5	1	221.66	1	184.72	55.41	0	0	0	0	0	0	9.236	92.36	277.08	0	184.72	0.0000	0.9539	0.0000	0.0000;
	3002120	55.41	-13.02	94.02	-20.5	1.01	221.66	1	184.72	55.41	0	0	0	0	0	0	9.236	92.36	277.08	0	184.72	0.0000	0.9539	0.0000	0.0000;
	3002123	181.7	-26.16	38.7	-26.16	1	218.04	1	181.7	0	0	0	0	0	0	0	181.7	1817	5451	0	181.7	1.7990	0.0000	0.0000	0.0000;
	3002127	288.6	61.47	61.47	-41.56	1.04	346.32	1	288.6	0	0	0	0	0	0	0	288.6	2886	8658	0	288.6	17.7171	0.0000	0.0000	0.0000;
	3003004	37.5	-5.4	7.99	-5.4	1	45	1	37.5	0	0	0	0	0	0	0	37.5	375	1125	0	37.5	2.1665	0.0000	0.0000	0.0000;
	3003017	169.5	-3.11	36.1	-24.41	1.01	203.4	1	169.5	0	0	0	0	0	0	0	169.5	1695	5085	0	169.5	3.7726	0.0000	0.0000	0.0000;
	3003020	150	-0.04	31.95	-21.6	1.03	180	1	150	0	0	0	0	0	0	0	150	1500	4500	0	150	0.8045	0.0000	0.0000	0.0000;
	3003028	200	30.9	42.6	-28.8	1.04	240	1	200	0	0	0	0	0	0	0	200	2000	6000	0	200	5.2926	0.0000	0.0000	0.0000;
	3003034	7.77893122	16.69	27.8	-18.79	1.03	156.6	1	130.5	0	0	0	0	0	0	0	130.5	1305	3915	0	130.5	0.0000	0.0000	0.0000	0.0000;
	3003039	209	32.46	44.52	-30.1	1.04	250.8	1	209	0	0	0	0	0	0	0	209	2090	6270	0	209	0.7178	0.0000	0.0000	0.0000;
	3003043	0.39	0	0.66	-0.14	1.04	1.56	1	1.3	0.39	0	0	0	0	0	0	0.39	3.9	11.7	0	1.3	0.0000	34.9549	0.0000	0.0000;
	3003044	26.82	0	45.5	-9.92	1.04	107.28	1	89.4	26.82	0	0	0	0	0	0	8.94	89.4	268.2	0	89.4	0.0000	35.7470	0.0000	0.0000;
	3003045	134.1	0	227.52	-49.62	1.04	536.4	1	447	134.1	0	0	0	0	0	0	22.35	223.5	670.5	0	447	0.0000	38.9583	0.0000	0.0000;
	3003048	241	51.33	51.33	-34.7	1.04	289.2	1	241	0	0	0	0	0	0	0	241	2410	7230	0	241	23.8902	0.0000	0.0000	0.0000;
	3003055	245.17	29.03	52.22	-35.3	1.04	294.2	1	245.17	0	0	0	0	0	0	0	245.17	2451.7	7355.1	0	245.17	7.5427	0.0000	0.0000	0.0000;
	3003056	245.17	20.55	52.22	-35.3	1.04	294.2	1	245.17	0	0	0	0	0	0	0	245.17	2451.7	7355.1	0	245.17	7.5427	0.0000	0.0000	0.0000;
	3003057	220	18.83	52.22	-35.3	1.04	294.2	1	245.17	0	0	0	0	0	0	0	245.17	2451.7	7355.1	0	245.17	0.0000	0.0000	0.0000	0.0000;
	3003060	165.63	10.79	35.28	-23.85	1.04	198.75	1	165.63	0	0	0	0	0	0	0	165.63	1656.3	4968.9	0	165.63	0.0000	0.0000	0.0000	0.0000;
	3003061	0	10.59	35.28	-23.85	1.04	198.75	1	165.63	0	0	0	0	0	0	0	165.63	1656.3	4968.9	0	165.63	0.0000	0.0000	0.0000	0.0000;
	3003062	0	12.87	35.28	-23.85	1.04	198.75	1	165.63	0	0	0	0	0	0	0	165.63	1656.3	4968.9	0	165.63	0.0000	0.0000	0.0000	0.0000;
	3003063	18.2159559	10.23	35.28	-23.85	1.04	198.75	1	165.63	0	0	0	0	0	0	0	165.63	1656.3	4968.9	0	165.63	0.0000	0.0000	0.0000	0.0000;
	3003065	80.5	-11.59	17.15	-11.59	1	96.6	1	80.5	0	0	0	0	0	0	0	80.5	805	2415	0	80.5	0.0907	0.0000	0.0000	0.0000;
	3003068	150	22.42	31.95	-21.6	1.04	180	1	150	0	0	0	0	0	0	0	150	1500	4500	0	150	3.4420	0.0000	0.0000	0.0000;
	3003071	170.2	-24.51	36.25	-24.51	1	204.24	1	170.2	0	0	0	0	0	0	0	170.2	1702	5106	0	170.2	4.2528	0.0000	0.0000	0.0000;
	3003074	99.8	-7.15	21.26	-14.37	1	119.76	1	99.8	0	0	0	0	0	0	0	99.8	998	2994	0	99.8	21.0836	0.0000	0.0000	0.0000;
	3003081	53.3518906	25.43	53.04	-35.86	1.04	298.8	1	249	0	0	0	0	0	0	0	249	2490	7470	0	249	0.0000	0.0000	0.0000	0.0000;
	3003084	232.5	-14.09	49.52	-33.48	1	279	1	232.5	0	0	0	0	0	0	0	232.5	2325	6975	0	232.5	12.6127	0.0000	0.0000	0.0000;
	3003086	75	-2.4	15.97	-10.8	1	90	1	75	0	0	0	0	0	0	0	75	750	2250	0	75	0.3369	0.0000	0.0000	0.0000;
	3003087	75	0	15.97	-10.8	1	90	1	75	0	0	0	0	0	0	0	75	750	2250	0	75	0.3369	0.0000	0.0000	0.0000;
	3003092	200	18.47	42.6	-28.8	1.04	240	1	200	0	0	0	0	0	0	0	200	2000	6000	0	200	6.1718	0.0000	0.0000	0.0000;
	3003095	120.6	17.28	25.69	-17.37	1.04	144.72	1	120.6	0	0	0	0	0	0	0	120.6	1206	3618	0	120.6	4.8288	0.0000	0.0000	0.0000;
	3003098	160	16.96	34.08	-23.04	1.04	192	1	160	0	0	0	0	0	0	0	160	1600	4800	0	160	0.7773	0.0000	0.0000	0.0000;
	3003105	44.5	-0.74	17.07	-0.74	1	18	1	44.5	0	0	0	0	0	0	0	11.125	111.25	333.75	0	15	1.6598	0.0000	0.0000	0.0000;
	3003106	18.5	-2.69	62.48	-2.69	1	65.88	1	18.5	0	0	0	0	0	0	0	4.625	46.25	138.75	0	54.9	1.6598	0.0000	0.0000	0.0000;
	3003110	84	11.52	17.89	-12.1	1.04	100.8	1	84	0	0	0	0	0	0	0	84	840	2520	0	84	0.2020	0.0000	0.0000	0.0000;
	3003112	74.8	-4	15.93	-10.77	1	89.76	1	74.8	0	0	0	0	0	0	0	74.8	748	2244	0	74.8	0.2676	0.0000	0.0000	0.0000;
	3003113	74.8	-3.31	15.93	-10.77	1	89.76	1	74.8	0	0	0	0	0	0	0	74.8	748	2244	0	74.8	0.2676	0.0000	0.0000	0.0000;
	3003117	63	-5.59	13.42	-9.07	1	75.6	1	63	0	0	0	0	0	0	0	63	630	1890	0	63	0.1455	0.0000	0.0000	0.0000;
	3003118	120	-9.26	25.56	-17.28	1	144	1	120	0	0	0	0	0	0	0	120	1200	3600	0	120	0.1455	0.0000	0.0000	0.0000;
	3003120	39.6	0	0	0	1	47.52	1	39.6	0	0	0	0	0	0	0	39.6	396	1188	0	39.6	19.9039	0.0000	0.0000	0.0000;
	3003122	197	-14.42	41.96	-28.37	1	236.4	1	197	0	0	0	0	0	0	0	197	1970	5910	0	197	0.8181	0.0000	0.0000	0.0000;
	3003127	135	-19.44	28.76	-19.44	1	162	1	135	0	0	0	0	0	0	0	135	1350	4050	0	135	1.6475	0.0000	0.0000	0.0000;
	3003129	37.5812913	-18.22	26.94	-18.22	1	151.8	1	126.5	0	0	0	0	0	0	0	126.5	1265	3795	0	126.5	0.0000	0.0000	0.0000	0.0000;
	3003131	114	6.75	24.28	-16.42	1.02	136.8	1	114	0	0	0	0	0	0	0	114	1140	3420	0	114	4.3130	0.0000	0.0000	0.0000;
	3003133	15.39	0	26.11	-5.69	1.04	61.56	1	51.3	15.39	0	0	0	0	0	0	5.13	51.3	153.9	0	51.3	0.0000	29.3068	0.0000	0.0000;
	3003133	15.39	0	26.11	-5.69	1.04	61.56	1	51.3	15.39	0	0	0	0	0	0	5.13	51.3	153.9	0	51.3	0.0000	29.3068	0.0000	0.0000;
	3003133	15.39	0	26.11	-5.69	1.04	61.56	1	51.3	15.39	0	0	0	0	0	0	5.13	51.3	153.9	0	51.3	0.0000	29.3068	0.0000	0.0000;
	3003137	101.2	21.56	21.56	-14.57	1.03	121.44	1	101.2	0	0	0	0	0	0	0	101.2	1012	3036	0	101.2	5.5387	0.0000	0.0000	0.0000;
	3003141	91.5	-13.18	19.49	-13.18	1	109.8	1	91.5	0	0	0	0	0	0	0	91.5	915	2745	0	91.5	1.9514	0.0000	0.0000	0.0000;
	3004010	201.6	9.12	42.94	-29.03	1.03	241.92	1	201.6	0	0	0	0	0	0	0	201.6	2016	6048	0	201.6	21.7745	0.0000	0.0000	0.0000;
	3004026	410	42.35	191.06	-50.02	1.03	492	1	410	123	0	0	0	0	0	0	2.46	24.6	73.8	0	410	0.1402	0.0000	0.0000	0.0000;
	3004030	549.422234	-41.42	290.04	-75.93	1.01	746.88	1	622.4	186.72	0	0	0	0	0	0	3.7344	37.344	112.032	0	622.4	0.0000	0.0000	0.0000	0.0000;
	3004045	36	5.86	35.86	-1.54	1.02	37.8	1	36	0	0	0	0	0	0	0	9	90	270	0	31.5	22.0592	0.0000	0.0000	0.0000;
	3004046	9.6	0.91	10.94	-0.47	1.02	11.52	1	9.6	0	0	0	0	0	0	0	2.4	24	72	0	9.6	22.0592	0.0000	0.0000	0.0000;
	3004047	5.68378837e-11	0.6	75.1	-3.23	1.02	79.2	1	195.7	0	0	0	0	0	0	0	9.785	97.85	293.55	0	66	0.0000	1.7824	0.0000	0.0000;
	3004050	200	-28.8	42.6	-28.8	1	240	1	200	0	0	0	0	0	0	0	200	2000	6000	0	200	21.8213	0.0000	0.0000	0.0000;
	3004052	13.26	22.5	22.5	-4.91	1.04	53.04	1	44.2	13.26	0	0	0	0	0	0	6.63	66.3	198.9	0	44.2	0.0000	1.5912	0.0000	0.0000;
	3004058	43.2	14.7	73.3	-15.98	1.03	172.8	1	144	43.2	0	0	0	0	0	0	7.2	72	216	0	144	0.0000	1.8501	0.0000	0.0000;
	3004059	43.2	15.12	73.3	-15.98	1.03	172.8	1	144	43.2	0	0	0	0	0	0	7.2	72	216	0	144	0.0000	1.8501	0.0000	0.0000;
	3004060	43.2	12.99	73.3	-15.98	1.03	172.8	1	144	43.2	0	0	0	0	0	0	7.2	72	216	0	144	0.0000	1.8501	0.0000	0.0000;
	3004061	51.7	16.74	87.72	-19.13	1.03	206.8	1	172.33	51.7	0	0	0	0	0	0	8.6165	86.165	258.495	0	172.33	0.0000	2.0561	0.0000	0.0000;
	3004062	51.7	14.76	87.72	-19.13	1.03	206.8	1	172.33	51.7	0	0	0	0	0	0	8.6165	86.165	258.495	0	172.33	0.0000	2.0561	0.0000	0.0000;
	3004063	51.7	16.97	87.72	-19.13	1.03	206.8	1	172.33	51.7	0	0	0	0	0	0	8.6165	86.165	258.495	0	172.33	0.0000	2.0561	0.0000	0.0000;
	3004065	14.1	9.84	23.92	-5.22	1.02	56.4	1	47	14.1	0	0	0	0	0	0	7.05	70.5	211.5	0	47	0.0000	1.6010	0.0000	0.0000;
	3004075	52.9	0	89.75	-19.57	1.03	211.6	1	176.33	52.9	0	0	0	0	0	0	8.8165	88.165	264.495	0	176.33	0.0000	18.0633	0.0000	0.0000;
	3004076	52.9	22.29	89.75	-19.57	1.03	211.6	1	176.33	52.9	0	0	0	0	0	0	8.8165	88.165	264.495	0	176.33	0.0000	18.0633	0.0000	0.0000;
	3004077	52.9	16.9	89.75	-19.57	1.03	211.6	1	176.33	52.9	0	0	0	0	0	0	8.8165	88.165	264.495	0	176.33	0.0000	18.0633	0.0000	0.0000;
	3004082	73.02	26.69	123.89	-27.02	1.04	292.08	1	243.4	73.02	0	0	0	0	0	0	12.17	121.7	365.1	0	243.4	0.0000	2.5210	0.0000	0.0000;
	3004083	73.02	27.21	123.89	-27.02	1.04	292.08	1	243.4	73.02	0	0	0	0	0	0	12.17	121.7	365.1	0	243.4	0.0000	2.5210	0.0000	0.0000;
	3004084	73.02	40.3	123.89	-27.02	1.04	292.08	1	243.4	73.02	0	0	0	0	0	0	12.17	121.7	365.1	0	243.4	0.0000	2.5210	0.0000	0.0000;
	3004085	105.6	41.93	179.17	-39.07	1.04	422.4	1	352	105.6	0	0	0	0	0	0	17.6	176	528	0	352	0.0000	3.3104	0.0000	0.0000;
	3004090	1.4	0	0.65	-0.17	1.01	1.68	1	1.4	0.42	0	0	0	0	0	0	0.112	1.12	3.36	0	1.4	1.5600	0.0000	0.0000	0.0000;
	3004091	23.5	-1.01	10.95	-2.87	1.01	28.2	1	23.5	7.05	0	0	0	0	0	0	1.88	18.8	56.4	0	23.5	1.4637	0.0000	0.0000	0.0000;
	3004092	7.6	0	3.54	-0.93	1.01	9.12	1	7.6	2.28	0	0	0	0	0	0	0.608	6.08	18.24	0	7.6	1.5330	0.0000	0.0000	0.0000;
	3004093	28	-1.55	13.05	-3.42	1.01	33.6	1	28	8.4	0	0	0	0	0	0	2.24	22.4	67.2	0	28	1.4440	0.0000	0.0000	0.0000;
	3004094	28	-2.66	13.05	-3.42	1.01	33.6	1	28	8.4	0	0	0	0	0	0	2.24	22.4	67.2	0	28	1.4440	0.0000	0.0000	0.0000;
	3004095	28	-1.57	13.05	-3.42	1.01	33.6	1	28	8.4	0	0	0	0	0	0	2.24	22.4	67.2	0	28	1.4440	0.0000	0.0000	0.0000;
	3004096	28	0	13.05	-3.42	1.01	33.6	1	28	8.4	0	0	0	0	0	0	2.24	22.4	67.2	0	28	1.4440	0.0000	0.0000	0.0000;
	3004097	28	-1.41	13.05	-3.42	1.01	33.6	1	28	8.4	0	0	0	0	0	0	2.24	22.4	67.2	0	28	1.4440	0.0000	0.0000	0.0000;
	3004098	28	0	13.05	-3.42	1.01	33.6	1	28	8.4	0	0	0	0	0	0	2.24	22.4	67.2	0	28	1.4440	0.0000	0.0000	0.0000;
	3004105	180	13.1	38.34	-25.92	1.01	216	1	180	0	0	0	0	0	0	0	180	1800	5400	0	180	21.3700	0.0000	0.0000	0.0000;
	3004115	39.54	25.73	67.09	-14.63	1.04	158.16	1	131.8	39.54	0	0	0	0	0	0	6.59	65.9	197.7	0	131.8	0.0000	17.7432	0.0000	0.0000;
	3004116	39.54	23.21	67.09	-14.63	1.04	158.16	1	131.8	39.54	0	0	0	0	0	0	6.59	65.9	197.7	0	131.8	0.0000	17.7432	0.0000	0.0000;
	3004133	10.08	0	17.1	-3.73	1	40.32	1	33.6	10.08	0	0	0	0	0	0	5.04	50.4	151.2	0	33.6	0.0000	16.5160	0.0000	0.0000;
	3004134	10.08	-3.73	17.1	-3.73	1	40.32	1	33.6	10.08	0	0	0	0	0	0	5.04	50.4	151.2	0	33.6	0.0000	16.5160	0.0000	0.0000;
	3004135	10.08	-3.73	17.1	-3.73	1	40.32	1	33.6	10.08	0	0	0	0	0	0	5.04	50.4	151.2	0	33.6	0.0000	16.5160	0.0000	0.0000;
	3004136	10.08	-3.73	17.1	-3.73	1	40.32	1	33.6	10.08	0	0	0	0	0	0	5.04	50.4	151.2	0	33.6	0.0000	16.5160	0.0000	0.0000;
	3004137	20.16	0	34.2	-7.46	1	80.64	1	67.2	20.16	0	0	0	0	0	0	6.72	67.2	201.6	0	67.2	0.0000	16.9317	0.0000	0.0000;
	3004138	19.8	0	33.59	-7.33	1	79.2	1	66	19.8	0	0	0	0	0	0	6.6	66	198	0	66	0.0000	16.9159	0.0000	0.0000;
	3004142	188	26.2	40.04	-27.07	1.04	225.6	1	188	0	0	0	0	0	0	0	188	1880	5640	0	188	21.8102	0.0000	0.0000	0.0000;
	3004153	283.2	60.32	60.32	-40.78	1.04	339.84	1	283.2	0	0	0	0	0	0	0	283.2	2832	8496	0	283.2	21.7944	0.0000	0.0000	0.0000;
	3004160	59.33	55.67	100.66	-21.95	1.03	237.32	1	197.77	59.33	0	0	0	0	0	0	9.8885	98.885	296.655	0	197.77	0.0000	2.3109	0.0000	0.0000;
	3004161	59.33	23.49	100.66	-21.95	1.03	237.32	1	197.77	59.33	0	0	0	0	0	0	9.8885	98.885	296.655	0	197.77	0.0000	2.3109	0.0000	0.0000;
	3004162	59.33	22.39	100.66	-21.95	1.03	237.32	1	197.77	59.33	0	0	0	0	0	0	9.8885	98.885	296.655	0	197.77	0.0000	2.3109	0.0000	0.0000;
	3004163	2.7	0	4.58	-1	1.03	10.8	1	9	2.7	0	0	0	0	0	0	2.25	22.5	67.5	0	9	0.0000	0.9404	0.0000	0.0000;
	3004166	201	-28.94	42.81	-28.94	1	241.2	1	201	0	0	0	0	0	0	0	201	2010	6030	0	201	21.7696	0.0000	0.0000	0.0000;
	3004177	0	-0.15	31.95	-21.6	1.04	180	1	150	0	0	0	0	0	0	0	150	1500	4500	0	150	0.0000	0.0000	0.0000	0.0000;
	3004181	200.1	42.62	42.62	-28.81	1.04	240.12	1	200.1	0	0	0	0	0	0	0	200.1	2001	6003	0	200.1	21.8411	0.0000	0.0000	0.0000;
	3004183	203	43.24	43.24	-29.23	1.03	243.6	1	203	0	0	0	0	0	0	0	203	2030	6090	0	203	21.8069	0.0000	0.0000	0.0000;
	3004192	22.5	12.56	38.17	-8.33	1.02	90	1	75	22.5	0	0	0	0	0	0	7.5	75	225	0	75	0.0000	1.2576	0.0000	0.0000;
	3004192	55.13	12.56	93.54	-20.4	1.02	220.52	1	183.77	55.13	0	0	0	0	0	0	9.1885	91.885	275.655	0	183.77	0.0000	2.0470	0.0000	0.0000;
	3004192	7.2	0	12.22	-2.66	1.02	28.8	1	24	7.2	0	0	0	0	0	0	4.8	48	144	0	24	0.0000	0.8874	0.0000	0.0000;
	3004192	18.3	12.56	31.05	-6.77	1.02	73.2	1	61	18.3	0	0	0	0	0	0	6.1	61	183	0	61	0.0000	1.1558	0.0000	0.0000;
	3004192	3.12	5.29	5.29	-1.15	1.02	12.48	1	10.4	3.12	0	0	0	0	0	0	2.08	20.8	62.4	0	10.4	0.0000	0.7880	0.0000	0.0000;
	3004192	80.1	12.56	135.9	-29.64	1.02	320.4	1	267	80.1	0	0	0	0	0	0	13.35	133.5	400.5	0	267	0.0000	2.6508	0.0000	0.0000;
	3004192	80.1	12.56	135.9	-29.64	1.02	320.4	1	267	80.1	0	0	0	0	0	0	13.35	133.5	400.5	0	267	0.0000	2.6508	0.0000	0.0000;
	3004192	80.1	12.56	135.9	-29.64	1.02	320.4	1	267	80.1	0	0	0	0	0	0	13.35	133.5	400.5	0	267	0.0000	2.6508	0.0000	0.0000;
	3004192	55.13	12.56	93.54	-20.4	1.02	220.52	1	183.77	55.13	0	0	0	0	0	0	9.1885	91.885	275.655	0	183.77	0.0000	2.0470	0.0000	0.0000;
	3004192	55.13	12.56	93.54	-20.4	1.02	220.52	1	183.77	55.13	0	0	0	0	0	0	9.1885	91.885	275.655	0	183.77	0.0000	2.0470	0.0000	0.0000;
	3004194	201.6	42.94	42.94	-29.03	1.02	241.92	1	201.6	0	0	0	0	0	0	0	201.6	2016	6048	0	201.6	21.8212	0.0000	0.0000	0.0000;
	3004195	92	-13.25	19.6	-13.25	1	110.4	1	92	0	0	0	0	0	0	0	92	920	2760	0	92	22.3384	0.0000	0.0000	0.0000;
	3005020	120	-17.28	25.56	-17.28	1	144	1	120	0	0	0	0	0	0	0	120	1200	3600	0	120	23.0730	0.0000	0.0000	0.0000;
	3005023	4.8	0	2.44	-0.53	1.04	5.76	1	4.8	1.44	0	0	0	0	0	0	1.44	14.4	43.2	0	4.8	1.1861	0.0000	0.0000	0.0000;
	3005035	4.2	0	2.14	-0.47	1.02	5.04	1	4.2	1.26	0	0	0	0	0	0	1.26	12.6	37.8	0	4.2	2.3271	0.0000	0.0000	0.0000;
	3005036	6.4	0	3.26	-0.71	1.02	7.68	1	6.4	1.92	0	0	0	0	0	0	1.6	16	48	0	6.4	2.3103	0.0000	0.0000	0.0000;
	3005037	225.658713	16.88	157.01	-34.24	1.02	370.16	1	308.47	92.54	0	0	0	0	0	0	15.4235	154.235	462.705	0	308.47	0.0000	0.0000	0.0000	0.0000;
	3005038	225.658713	16.55	157.01	-34.24	1.02	370.16	1	308.47	92.54	0	0	0	0	0	0	15.4235	154.235	462.705	0	308.47	0.0000	0.0000	0.0000	0.0000;
	3005039	225.658713	37.47	157.01	-34.24	1.02	370.16	1	308.47	92.54	0	0	0	0	0	0	15.4235	154.235	462.705	0	308.47	0.0000	0.0000	0.0000	0.0000;
	3005040	225.658713	11.89	157.01	-34.24	1.02	370.16	1	308.47	92.54	0	0	0	0	0	0	15.4235	154.235	462.705	0	308.47	0.0000	0.0000	0.0000	0.0000;
	3005041	225.658713	17.4	157.01	-34.24	1.02	370.16	1	308.47	92.54	0	0	0	0	0	0	15.4235	154.235	462.705	0	308.47	0.0000	0.0000	0.0000	0.0000;
	3005042	225.658713	15.52	157.01	-34.24	1.02	370.16	1	308.47	92.54	0	0	0	0	0	0	15.4235	154.235	462.705	0	308.47	0.0000	0.0000	0.0000	0.0000;
	3005051	25.41	35.75	43.11	-9.4	1.02	101.64	1	84.7	25.41	0	0	0	0	0	0	8.47	84.7	254.1	0	84.7	0.0000	0.2221	0.0000	0.0000;
	3005057	95.2	0	161.53	-35.23	1	380.82	1	317.35	95.2	0	0	0	0	0	0	15.8675	158.675	476.025	0	317.35	0.0000	0.8992	0.0000	0.0000;
	3005058	95.2	-35.23	161.53	-35.23	1	380.82	1	317.35	95.2	0	0	0	0	0	0	15.8675	158.675	476.025	0	317.35	0.0000	0.8817	0.0000	0.0000;
	3005065	10.6	5.4	5.4	-1.18	1.03	12.72	1	10.6	3.18	0	0	0	0	0	0	2.12	21.2	63.6	0	10.6	1.1684	0.0000	0.0000	0.0000;
	3005066	1.8	0	0.92	-0.2	1.03	2.16	1	1.8	0.54	0	0	0	0	0	0	0.54	5.4	16.2	0	1.8	1.2432	0.0000	0.0000	0.0000;
	3005067	131.48	106.81	223.08	-48.65	1.03	525.92	1	438.27	131.48	0	0	0	0	0	0	21.9135	219.135	657.405	0	438.27	0.0000	1.8211	0.0000	0.0000;
	3005068	131.48	100.32	223.08	-48.65	1.03	525.92	1	438.27	131.48	0	0	0	0	0	0	21.9135	219.135	657.405	0	438.27	0.0000	1.8211	0.0000	0.0000;
	3005069	131.48	94.11	223.08	-48.65	1.03	525.92	1	438.27	131.48	0	0	0	0	0	0	21.9135	219.135	657.405	0	438.27	0.0000	1.8211	0.0000	0.0000;
	3005089	123.9	0	47.57	-2.05	1.01	50.16	1	123.9	0	0	0	0	0	0	0	6.195	61.95	185.85	0	41.8	0.1886	0.0000	0.0000	0.0000;
...
];

%% branch data
%	fbus	tbus	r	x	b	rateA	rateB	rateC	ratio	angle	status	angmin	angmax	Pf	Qf	Pt	Qt	mu_Sf	mu_St	mu_angmin	mu_angmax
mpc.branch = [
	3001001	3001064	0.00524	0.0358	0.00609	221	0	0	0	0	1	0	0	20.4518	0.0000	-20.4518	0.0000	0.0000	0.0000	0.0000	0.0000;
	3001001	3001064	0.00524	0.0358	0.00609	221	0	0	0	0	1	0	0	20.4518	0.0000	-20.4518	0.0000	0.0000	0.0000	0.0000	0.0000;
	3001001	3001071	0.00435	0.02808	0.00536	221	0	0	0	0	1	0	0	-30.8418	0.0000	30.8418	0.0000	0.0000	0.0000	0.0000	0.0000;
	3001001	3001071	0.00435	0.02808	0.00536	221	0	0	0	0	1	0	0	-30.8418	0.0000	30.8418	0.0000	0.0000	0.0000	0.0000	0.0000;
	3001002	3001007	0.07776	0.46693	0.06336	98	0	0	0	0	1	0	0	1.5517	0.0000	-1.5517	0.0000	0.0000	0.0000	0.0000	0.0000;
	3001010	3001002	0.05552	0.1357	0.01777	98	0	0	0	0	1	0	0	16.9617	0.0000	-16.9617	0.0000	0.0000	0.0000	0.0000	0.0000;
	3001004	3001003	0.0045	0.11582	0	250	0	0	1	0	1	0	0	-138.1031	0.0000	138.1031	0.0000	0.0000	0.0000	0.0000	0.0000;
	3001022	3001003	0.00485	0.02012	0.00341	221	0	0	0	0	1	0	0	167.7187	0.0000	-167.7187	0.0000	0.0000	0.0000	0.0000	0.0000;
	3001055	3001003	0.01574	0.03782	0.00513	196	0	0	0	0	1	0	0	-29.6157	0.0000	29.6157	0.0000	0.0000	0.0000	0.0000	0.0000;
	3001004	3003133	0.0042	0.03	0.055	523	0	0	0	0	1	0	0	138.1031	0.0000	-138.1031	0.0000	0.0000	0.0000	0.0000	0.0000;
	3001006	3001005	0.00602	0.14707	0	42	0	0	1	0	1	0	0	34.3000	0.0000	-34.3000	0.0000	0.0000	0.0000	0.0000	0.0000;
	3001025	3001005	0.01842	0.0821	0.01204	149	0	0	0	0	1	0	0	-84.5761	0.0000	84.5761	0.0000	0.0000	0.0000	0.0000	0.0000;
	3001005	3001061	0.00599	0.02484	0.00422	221	0	0	0	0	1	0	0	84.3175	0.0000	-84.3175	0.0000	0.0000	0.0000	0.0000	0.0000;
	3001067	3001005	0.01711	0.04181	0.00548	274.4	0	0	0	0	1	0	0	134.5936	0.0000	-134.5936	0.0000	0.0000	0.0000	0.0000	0.0000;
	3001007	3001015	0.06224	0.37375	0.05072	98	0	0	0	0	1	0	0	-22.9003	0.0000	22.9003	0.0000	0.0000	0.0000	0.0000	0.0000;
	3001031	3001007	0.04803	0.27434	0.04123	98	0	0	0	0	1	0	0	-17.4420	0.0000	17.4420	0.0000	0.0000	0.0000	0.0000	0.0000;
	3001009	3001008	0.00455	0.09471	0	120	0	0	1	0	1	0	0	0.0000	0.0000	-0.0000	0.0000	0.0000	0.0000	0.0000	0.0000;
	3001008	3001032	0.04501	0.11002	0.01441	98	0	0	0	0	1	0	0	98.0000	0.0000	-98.0000	0.0000	0.1918	0.0000	0.0000	0.0000;
	3001008	3001069	0.0083	0.03628	0.00553	149	0	0	0	0	1	0	0	-10.3583	0.0000	10.3583	0.0000	0.0000	0.0000	0.0000	0.0000;
	3001011	3001010	0.00721	0.3246	0	46	0	0	1	0	1	0	0	10.0000	0.0000	-10.0000	0.0000	0.0000	0.0000	0.0000	0.0000;
	3001010	3001015	0.04703	0.28243	0.03833	98	0	0	0	0	1	0	0	-19.5897	0.0000	19.5897	0.0000	0.0000	0.0000	0.0000	0.0000;
	3001010	3001030	0.0616	0.3699	0.0502	98	0	0	0	0	1	0	0	12.6280	0.0000	-12.6280	0.0000	0.0000	0.0000	0.0000	0.0000;
	3001012	3001087	0.04934	0.20469	0.03473	149	0	0	0	0	1	0	0	-83.0374	0.0000	83.0374	0.0000	0.0000	0.0000	0.0000	0.0000;
	3003051	3001012	0.0571	0.24977	0.03804	149	0	0	0	0	1	0	0	-80.0474	0.0000	80.0474	0.0000	0.0000	0.0000	0.0000	0.0000;
	3001013	3001031	0.04509	0.27078	0.03675	98	0	0	0	0	1	0	0	-8.1920	0.0000	8.1920	0.0000	0.0000	0.0000	0.0000	0.0000;
	3001047	3001013	0.00947	0.06117	0.01167	221	0	0	0	0	1	0	0	-41.0968	0.0000	41.0968	0.0000	0.0000	0.0000	0.0000	0.0000;
	3001086	3001013	0.079	0.19311	0.02529	98	0	0	0	0	1	0	0	-37.8651	0.0000	37.8651	0.0000	0.0000	0.0000	0.0000	0.0000;
	3001014	3001047	0.03566	0.14794	0.0251	149	0	0	0	0	1	0	0	24.8633	0.0000	-24.8633	0.0000	0.0000	0.0000	0.0000	0.0000;
	3001014	3001083	0.04105	0.18293	0.02682	149	0	0	0	0	1	0	0	-27.0833	0.0000	27.0833	0.0000	0.0000	0.0000	0.0000	0.0000;
	3001016	3001034	0.01828	0.10976	0.01489	98	0	0	0	0	1	0	0	8.0000	0.0000	-8.0000	0.0000	0.0000	0.0000	0.0000	0.0000;
	3001068	3001016	0.02773	0.15837	0.0238	98	0	0	0	0	1	0	0	-90.4816	0.0000	90.4816	0.0000	0.0000	0.0000	0.0000	0.0000;
	3001018	3001017	0.03227	0.07887	0.01033	98	0	0	0	0	1	0	0	35.7417	0.0000	-35.7417	0.0000	0.0000	0.0000	0.0000	0.0000;
	3001017	3001029	0.03244	0.14188	0.02161	163.9	0	0	0	0	1	0	0	-56.4276	0.0000	56.4276	0.0000	0.0000	0.0000	0.0000	0.0000;
	3001037	3001017	0.00752	0.03352	0.00491	221	0	0	0	0	1	0	0	-221.0000	0.0000	221.0000	0.0000	0.0000	36.2988	0.0000	0.0000;
	3001047	3001017	0.036	0.156	0.024	150	0	0	0	0	1	0	0	147.1707	0.0000	-147.1707	0.0000	0.0000	0.0000	0.0000	0.0000;
	3001024	3001018	0.01094	0.06572	0.00892	98	0	0	0	0	1	0	0	35.8117	0.0000	-35.8117	0.0000	0.0000	0.0000	0.0000	0.0000;
	3001019	3001040	0.04978	0.20651	0.03504	149	0	0	0	0	1	0	0	-84.1597	0.0000	84.1597	0.0000	0.0000	0.0000	0.0000	0.0000;
	3001019	3001045	0.01522	0.0372	0.00487	287.3	0	0	0	0	1	0	0	32.6264	0.0000	-32.6264	0.0000	0.0000	0.0000	0.0000	0.0000;
	3001019	3001071	0.0044	0.028	0.0054	225	0	0	0	0	1	0	0	98.5378	0.0000	-98.5378	0.0000	0.0000	0.0000	0.0000	0.0000;
	3001071	3001019	0.0044	0.028	0.0054	225	0	0	0	0	1	0	0	-98.5378	0.0000	98.5378	0.0000	0.0000	0.0000	0.0000	0.0000;
	3001019	3001084	0.03	0.16	0.025	330	0	0	0	0	1	0	0	-207.3222	0.0000	207.3222	0.0000	0.0000	0.0000	0.0000	0.0000;
	3001021	3001020	0.00327	0.07812	0	250	0	0	1	0	1	0	0	199.5000	0.0000	-199.5000	0.0000	0.0000	0.0000	0.0000	0.0000;
	3001025	3001020	0.00828	0.03434	0.00583	149	0	0	0	0	1	0	0	149.0000	0.0000	-149.0000	0.0000	3.6674	0.0000	0.0000	0.0000;
	3001084	3001020	0.01056	0.06337	0.0086	221	0	0	0	0	1	0	0	-92.3251	0.0000	92.3251	0.0000	0.0000	0.0000	0.0000	0.0000;
	3001020	3003059	0.0189	0.06	0.006	300	0	0	0	0	1	0	0	171.1855	0.0000	-171.1855	0.0000	0.0000	0.0000	0.0000	0.0000;
	3001020	3003130	0.00996	0.06938	0.01134	221	0	0	0	0	1	0	0	84.9894	0.0000	-84.9894	0.0000	0.0000	0.0000	0.0000	0.0000;
	3001023	3001022	0.00535	0.11733	0	250	0	0	1	0	1	0	0	0.0000	0.0000	-0.0000	0.0000	0.0000	0.0000	0.0000	0.0000;
	3001022	3001028	0.01433	0.09253	0.01765	221	0	0	0	0	1	0	0	-83.8594	0.0000	83.8594	0.0000	0.0000	0.0000	0.0000	0.0000;
	3001022	3001028	0.01433	0.09253	0.01765	221	0	0	0	0	1	0	0	-83.8594	0.0000	83.8594	0.0000	0.0000	0.0000	0.0000	0.0000;
	3001024	3001090	0.01414	0.06303	0.00924	149	0	0	0	0	1	0	0	-98.8517	0.0000	98.8517	0.0000	0.0000	0.0000	0.0000	0.0000;
	3001026	3001025	0.0042	0.18046	0	200	0	0	1	0	1	0	0	64.4239	0.0000	-64.4239	0.0000	0.0000	0.0000	0.0000	0.0000;
	3001027	3001045	0.02505	0.10957	0.01669	221	0	0	0	0	1	0	0	148.7900	0.0000	-148.7900	0.0000	0.0000	0.0000	0.0000	0.0000;
	3001056	3001027	0.03121	0.0763	0.00999	250	0	0	0	0	1	0	0	250.0000	0.0000	-250.0000	0.0000	5.1770	0.0000	0.0000	0.0000;
	3001028	3003109	0.00428	0.01875	0.00286	250	0	0	0	0	1	0	0	237.2527	0.0000	-237.2527	0.0000	0.0000	0.0000	0.0000	0.0000;
	3001029	3001056	0.02054	0.11733	0.01763	221	0	0	0	0	1	0	0	-139.6076	0.0000	139.6076	0.0000	0.0000	0.0000	0.0000	0.0000;
	3001030	3001038	0.07404	0.42285	0.06354	98	0	0	0	0	1	0	0	-9.9653	0.0000	9.9653	0.0000	0.0000	0.0000	0.0000	0.0000;
	3001083	3001030	0.06537	0.37334	0.0561	98	0	0	0	0	1	0	0	2.0366	0.0000	-2.0366	0.0000	0.0000	0.0000	0.0000	0.0000;
	3001033	3001032	0.00283	0.06758	0	187	0	0	1	0	1	0	0	-187.0000	0.0000	187.0000	0.0000	0.0000	7.8630	0.0000	0.0000;
	3001032	3001036	0.01956	0.11746	0.01594	127.4	0	0	0	0	1	0	0	-17.4816	0.0000	17.4816	0.0000	0.0000	0.0000	0.0000	0.0000;
	3001038	3001032	0.045	0.11	0.015	155	0	0	0	0	1	0	0	71.5184	0.0000	-71.5184	0.0000	0.0000	0.0000	0.0000	0.0000;
	3001033	3001081	0.003	0.031	0.059	548	0	0	0	0	1	0	0	238.6006	0.0000	-238.6006	0.0000	0.0000	0.0000	0.0000	0.0000;
	3001033	3003050	0.0139	0.136	0.262	647	0	0	0	0	1	0	0	226.3994	0.0000	-226.3994	0.0000	0.0000	0.0000	0.0000	0.0000;
	3001035	3001034	0.00438	0.08496	0	130	0	0	1	0	1	0	0	90.0000	0.0000	-90.0000	0.0000	0.0000	0.0000	0.0000	0.0000;
	3001067	3001034	0.00795	0.04771	0.00647	98	0	0	0	0	1	0	0	-98.0000	0.0000	98.0000	0.0000	0.0000	0.0870	0.0000	0.0000;
	3001088	3001036	0.02065	0.11793	0.01772	98	0	0	0	0	1	0	0	31.0816	0.0000	-31.0816	0.0000	0.0000	0.0000	0.0000	0.0000;
	3001037	3001071	0.00669	0.04319	0.00824	300	0	0	0	0	1	0	0	118.7600	0.0000	-118.7600	0.0000	0.0000	0.0000	0.0000	0.0000;
	3001039	3001038	0.00201	0.08591	0	200	0	0	1	0	1	0	0	29.2841	0.0000	-29.2841	0.0000	0.0000	0.0000	0.0000	0.0000;
	3001082	3001038	0.01115	0.04969	0.00729	149	0	0	0	0	1	0	0	121.2695	0.0000	-121.2695	0.0000	0.0000	0.0000	0.0000	0.0000;
	3001083	3001038	0.01	0.05	0.007	221	0	0	0	0	1	0	0	-69.0699	0.0000	69.0699	0.0000	0.0000	0.0000	0.0000	0.0000;
	3001040	3001090	0.02991	0.13329	0.01955	149	0	0	0	0	1	0	0	-28.5197	0.0000	28.5197	0.0000	0.0000	0.0000	0.0000	0.0000;
	3001042	3001041	0.00419	0.11123	0	145	0	0	1	0	1	0	0	121.9000	0.0000	-121.9000	0.0000	0.0000	0.0000	0.0000	0.0000;
	3001043	3001041	0.003	0.12844	0	95	0	0	1	0	1	0	0	58.8000	0.0000	-58.8000	0.0000	0.0000	0.0000	0.0000	0.0000;
	3001065	3001041	0.00386	0.02203	0.00331	98	0	0	0	0	1	0	0	-42.5564	0.0000	42.5564	0.0000	0.0000	0.0000	0.0000	0.0000;
	3001041	3001067	0.00393	0.01722	0.00262	149	0	0	0	0	1	0	0	138.1436	0.0000	-138.1436	0.0000	0.0000	0.0000	0.0000	0.0000;
	3001044	3003019	0.03857	0.17192	0.02521	149	0	0	0	0	1	0	0	149.0000	0.0000	-149.0000	0.0000	3.4277	0.0000	0.0000	0.0000;
	3003130	3001044	0.02731	0.19029	0.03111	221	0	0	0	0	1	0	0	-6.6577	0.0000	6.6577	0.0000	0.0000	0.0000	0.0000	0.0000;
	3001045	3001064	0.00545	0.03794	0.0062	221	0	0	0	0	1	0	0	82.8564	0.0000	-82.8564	0.0000	0.0000	0.0000	0.0000	0.0000;
	3001087	3001046	0.03262	0.14269	0.02173	149	0	0	0	0	1	0	0	83.7448	0.0000	-83.7448	0.0000	0.0000	0.0000	0.0000	0.0000;
	3001046	3003009	0.05654	0.23454	0.0398	149	0	0	0	0	1	0	0	72.6648	0.0000	-72.6648	0.0000	0.0000	0.0000	0.0000	0.0000;
	3001048	3001047	0.00335	0.06576	0	390	0	0	1	0	1	0	0	97.5600	0.0000	-97.5600	0.0000	0.0000	0.0000	0.0000	0.0000;
	3001049	3001047	0.00276	0.11783	0	390	0	0	1	0	1	0	0	97.5600	0.0000	-97.5600	0.0000	0.0000	0.0000	0.0000	0.0000;
	3001050	3001047	0.00313	0.09941	0	124	0	0	1	0	1	0	0	26.8200	0.0000	-26.8200	0.0000	0.0000	0.0000	0.0000	0.0000;
	3001051	3001047	0.0056	0.1283	0	117	0	0	1	0	1	0	0	26.8200	0.0000	-26.8200	0.0000	0.0000	0.0000	0.0000	0.0000;
	3001052	3001047	0.00368	0.0826	0	110	0	0	1	0	1	0	0	26.8200	0.0000	-26.8200	0.0000	0.0000	0.0000	0.0000	0.0000;
	3001053	3001047	0.0023	0.08808	0	250	0	0	1	0	1	0	0	-120.3065	0.0000	120.3065	0.0000	0.0000	0.0000	0.0000	0.0000;
	3001047	3001085	0.00947	0.06117	0.01167	221	0	0	0	0	1	0	0	74.0630	0.0000	-74.0630	0.0000	0.0000	0.0000	0.0000	0.0000;
	3001053	3001081	0.003	0.03	0.06	548	0	0	0	0	1	0	0	173.9465	0.0000	-173.9465	0.0000	0.0000	0.0000	0.0000	0.0000;
	3001054	3001056	0.02202	0.09633	0.01467	149	0	0	0	0	1	0	0	-29.9543	0.0000	29.9543	0.0000	0.0000	0.0000	0.0000	0.0000;
	3001089	3001054	0.08737	0.21357	0.02796	98	0	0	0	0	1	0	0	-14.9643	0.0000	14.9643	0.0000	0.0000	0.0000	0.0000	0.0000;
	3001055	3001089	0.04982	0.12179	0.01595	176.4	0	0	0	0	1	0	0	25.6357	0.0000	-25.6357	0.0000	0.0000	0.0000	0.0000	0.0000;
	3001057	3001056	0.00315	0.1312	0	160	0	0	1	0	1	0	0	120.0000	0.0000	-120.0000	0.0000	0.0000	0.0000	0.0000	0.0000;
	3001056	3001061	0.02267	0.12946	0.01945	150	0	0	0	0	1	0	0	-114.5055	0.0000	114.5055	0.0000	0.0000	0.0000	0.0000	0.0000;
	3001056	3001065	0.02269	0.12962	0.01948	250	0	0	0	0	1	0	0	-185.0564	0.0000	185.0564	0.0000	0.0000	0.0000	0.0000	0.0000;
	3001059	3001058	0.02655	0.46187	0	33	0	0	1	0	1	0	0	1.6800	0.0000	-1.6800	0.0000	0.0000	0.0000	0.0000	0.0000;
	3001060	3001058	0.00894	0.38854	0	27	0	0	1	0	1	0	0	0.6000	0.0000	-0.6000	0.0000	0.0000	0.0000	0.0000	0.0000;
	3001069	3001058	0.0074	0.05155	0.00843	221	0	0	0	0	1	0	0	89.4361	0.0000	-89.4361	0.0000	0.0000	0.0000	0.0000	0.0000;
	3001069	3001058	0.0074	0.05155	0.00843	221	0	0	0	0	1	0	0	89.4361	0.0000	-89.4361	0.0000	0.0000	0.0000	0.0000	0.0000;
	3001058	3001087	0.01573	0.10956	0.01791	221	0	0	0	0	1	0	0	83.8461	0.0000	-83.8461	0.0000	0.0000	0.0000	0.0000	0.0000;
	3001058	3001087	0.01573	0.10956	0.01791	221	0	0	0	0	1	0	0	83.8461	0.0000	-83.8461	0.0000	0.0000	0.0000	0.0000	0.0000;
	3001062	3001061	0.0163	0.31787	0	29	0	0	1	0	1	0	0	0.0000	0.0000	-0.0000	0.0000	0.0000	0.0000	0.0000	0.0000;
	3001063	3001061	0.00567	0.10409	0	260	0	0	1	0	1	0	0	164.3299	0.0000	-164.3299	0.0000	0.0000	0.0000	0.0000	0.0000;
	3001061	3003042	0.054	0.18	0.028	221	0	0	0	0	1	0	0	134.1418	0.0000	-134.1418	0.0000	0.0000	0.0000	0.0000	0.0000;
	3001066	3001065	0.00508	0.12315	0	200	0	0	1	0	1	0	0	142.5000	0.0000	-142.5000	0.0000	0.0000	0.0000	0.0000	0.0000;
	3001088	3001068	0.02962	0.16921	0.02543	98	0	0	0	0	1	0	0	-31.0816	0.0000	31.0816	0.0000	0.0000	0.0000	0.0000	0.0000;
	3001070	3001069	0.00297	0.07	0	220	0	0	1	0	1	0	0	160.5000	0.0000	-160.5000	0.0000	0.0000	0.0000	0.0000	0.0000;
	3001082	3001069	0.02137	0.0952	0.01396	149	0	0	0	0	1	0	0	28.7305	0.0000	-28.7305	0.0000	0.0000	0.0000	0.0000	0.0000;
	3001072	3001071	0.00529	0.08551	0	240	0	0	1	0	1	0	0	57.6400	0.0000	-57.6400	0.0000	0.0000	0.0000	0.0000	0.0000;
	3001073	3001071	0.00499	0.14254	0	240	0	0	1	0	1	0	0	57.6400	0.0000	-57.6400	0.0000	0.0000	0.0000	0.0000	0.0000;
	3001074	3001071	0.00575	0.12453	0	240	0	0	1	0	1	0	0	57.6400	0.0000	-57.6400	0.0000	0.0000	0.0000	0.0000	0.0000;
	3001075	3001071	0.00373	0.09967	0	240	0	0	1	0	1	0	0	57.6400	0.0000	-57.6400	0.0000	0.0000	0.0000	0.0000	0.0000;
	3001076	3001071	0.00141	0.04937	0	230	0	0	1	0	1	0	0	57.6400	0.0000	-57.6400	0.0000	0.0000	0.0000	0.0000	0.0000;
	3001077	3001071	0.00641	0.12047	0	230	0	0	1	0	1	0	0	57.6400	0.0000	-57.6400	0.0000	0.0000	0.0000	0.0000	0.0000;
	3001078	3001071	0.00533	0.19087	0	137	0	0	1	0	1	0	0	28.6500	0.0000	-28.6500	0.0000	0.0000	0.0000	0.0000	0.0000;
	3001079	3001071	0.00013	0.046	0	2000	0	0	1	0	1	0	0	-861.7839	0.0000	861.7839	0.0000	0.0000	0.0000	0.0000	0.0000;
	3001080	3001071	0.01206	0.20208	0	136	0	0	1	0	1	0	0	28.6500	0.0000	-28.6500	0.0000	0.0000	0.0000	0.0000	0.0000;
	3001081	3001071	0.00167	0.0665	0	350	0	0	1	0	1	0	0	295.9520	0.0000	-295.9520	0.0000	0.0000	0.0000	0.0000	0.0000;
	3003048	3001079	0.0013	0.015	1.02	2300	0	0	0	0	1	0	0	-445.2169	0.0000	445.2169	0.0000	0.0000	0.0000	0.0000	0.0000;
	3003048	3001079	0.0013	0.015	1.02	2300	0	0	0	0	1	0	0	-445.2169	0.0000	445.2169	0.0000	0.0000	0.0000	0.0000	0.0000;
	3001081	3003058	0.0091	0.089	0.171	548	0	0	0	0	1	0	0	202.5451	0.0000	-202.5451	0.0000	0.0000	0.0000	0.0000	0.0000;
	3001084	3003130	0.02049	0.09131	0.01339	221	0	0	0	0	1	0	0	0.5029	0.0000	-0.5029	0.0000	0.0000	0.0000	0.0000	0.0000;
	3001085	3001086	0.03392	0.14838	0.0226	149	0	0	0	0	1	0	0	1.8049	0.0000	-1.8049	0.0000	0.0000	0.0000	0.0000	0.0000;
	3001090	3001085	0.02018	0.13786	0.02346	221	0	0	0	0	1	0	0	-50.9581	0.0000	50.9581	0.0000	0.0000	0.0000	0.0000	0.0000;
	3002029	3001091	0.0389	0.17144	0.0798	187	0	0	0	0	1	0	0	-41.3405	0.0000	41.3405	0.0000	0.0000	0.0000	0.0000	0.0000;
	3001091	3002048	0.02193	0.09667	0.045	187	0	0	0	0	1	0	0	6.7762	0.0000	-6.7762	0.0000	0.0000	0.0000	0.0000	0.0000;
	3002098	3001091	0.00554	0.02443	0.01137	187	0	0	0	0	1	0	0	-88.6632	0.0000	88.6632	0.0000	0.0000	0.0000	0.0000	0.0000;
	3002022	3002001	0.00839	0.03697	0.01721	187	0	0	0	0	1	0	0	63.0638	0.0000	-63.0638	0.0000	0.0000	0.0000	0.0000	0.0000;
	3002027	3002001	0.00955	0.04062	0.02032	187	0	0	0	0	1	0	0	-14.7038	0.0000	14.7038	0.0000	0.0000	0.0000	0.0000	0.0000;
	3002003	3002002	0.0003	0.01986	0	981	0	0	1	0	1	0	0	-168.6500	0.0000	168.6500	0.0000	0.0000	0.0000	0.0000	0.0000;
	3002004	3002002	0.00022	0.01466	0	635	0	0	1	0	1	0	0	117.5400	0.0000	-117.5400	0.0000	0.0000	0.0000	0.0000	0.0000;
	3002005	3002002	0.00033	0.01714	0	645	0	0	1	0	1	0	0	117.5400	0.0000	-117.5400	0.0000	0.0000	0.0000	0.0000	0.0000;
	3002006	3002002	0.00036	0.02679	0	636	0	0	1	0	1	0	0	117.5400	0.0000	-117.5400	0.0000	0.0000	0.0000	0.0000	0.0000;
	3002021	3002002	0.00097	0.01175	0.78032	2295	0	0	0	0	1	0	0	263.6602	0.0000	-263.6602	0.0000	0.0000	0.0000	0.0000	0.0000;
	3002002	3002101	0.00031	0.0037	0.24573	2020	0	0	0	0	1	0	0	447.6301	0.0000	-447.6301	0.0000	0.0000	0.0000	0.0000	0.0000;
	3002038	3002003	0.00353	0.02067	0.01032	251	0	0	0	0	1	0	0	-64.3517	0.0000	64.3517	0.0000	0.0000	0.0000	0.0000	0.0000;
	3002003	3002047	0.0013	0.0099	0.0052	310	0	0	0	0	1	0	0	104.2983	0.0000	-104.2983	0.0000	0.0000	0.0000	0.0000	0.0000;
	3002007	3002114	0.00888	0.05207	0.026	251	0	0	0	0	1	0	0	-64.1764	0.0000	64.1764	0.0000	0.0000	0.0000	0.0000	0.0000;
	3002007	3002122	0.00861	0.03661	0.01831	187	0	0	0	0	1	0	0	54.6364	0.0000	-54.6364	0.0000	0.0000	0.0000	0.0000	0.0000;
	3002014	3002008	0.02253	0.09931	0.04623	187	0	0	0	0	1	0	0	12.7105	0.0000	-12.7105	0.0000	0.0000	0.0000	0.0000	0.0000;
	3002008	3002052	0.01877	0.08271	0.0385	187	0	0	0	0	1	0	0	4.6505	0.0000	-4.6505	0.0000	0.0000	0.0000	0.0000	0.0000;
	3002009	3002049	0.01224	0.07176	0.03583	251	0	0	0	0	1	0	0	-251.0000	0.0000	251.0000	0.0000	0.0000	23.3574	0.0000	0.0000;
	3002009	3002082	0.00735	0.03126	0.01563	187	0	0	0	0	1	0	0	69.6350	0.0000	-69.6350	0.0000	0.0000	0.0000	0.0000	0.0000;
	3002109	3002009	0.00725	0.03084	0.01542	250	0	0	0	0	1	0	0	-142.2250	0.0000	142.2250	0.0000	0.0000	0.0000	0.0000	0.0000;
	3002061	3002010	0.02439	0.10748	0.05003	187	0	0	0	0	1	0	0	-187.0000	0.0000	187.0000	0.0000	0.0000	1.0455	0.0000	0.0000;
	3002010	3002079	0.02061	0.09083	0.04228	187	0	0	0	0	1	0	0	-84.4383	0.0000	84.4383	0.0000	0.0000	0.0000	0.0000	0.0000;
	3002010	3002091	0.02461	0.10467	0.05235	187	0	0	0	0	1	0	0	6.2493	0.0000	-6.2493	0.0000	0.0000	0.0000	0.0000	0.0000;
	3002012	3002011	0.00044	0.03546	0	461	0	0	1	0	1	0	0	461.0000	0.0000	-461.0000	0.0000	26.2890	0.0000	0.0000	0.0000;
	3002013	3002011	0.00043	0.02897	0	412	0	0	1	0	1	0	0	200.6000	0.0000	-200.6000	0.0000	0.0000	0.0000	0.0000	0.0000;
	3002127	3002011	0.00108	0.01307	0.86827	2020	0	0	0	0	1	0	0	-661.6000	0.0000	661.6000	0.0000	0.0000	0.0000	0.0000	0.0000;
	3002012	3002041	0.01245	0.05297	0.02649	187	0	0	0	0	1	0	0	-76.8070	0.0000	76.8070	0.0000	0.0000	0.0000	0.0000	0.0000;
	3002012	3002052	0.02008	0.08851	0.0412	187	0	0	0	0	1	0	0	20.1895	0.0000	-20.1895	0.0000	0.0000	0.0000	0.0000	0.0000;
	3002093	3002012	0.01029	0.04536	0.02111	187	0	0	0	0	1	0	0	-53.9836	0.0000	53.9836	0.0000	0.0000	0.0000	0.0000	0.0000;
	3002012	3002123	0.00995	0.0423	0.02115	251	0	0	0	0	1	0	0	-123.9165	0.0000	123.9165	0.0000	0.0000	0.0000	0.0000	0.0000;
	3002014	3002029	0.01859	0.07908	0.03955	187	0	0	0	0	1	0	0	-38.1405	0.0000	38.1405	0.0000	0.0000	0.0000	0.0000	0.0000;
	3002015	3002037	0.00862	0.03799	0.01769	187	0	0	0	0	1	0	0	13.8807	0.0000	-13.8807	0.0000	0.0000	0.0000	0.0000	0.0000;
	3005014	3002015	0.00961	0.04237	0.01972	187	0	0	0	0	1	0	0	18.5707	0.0000	-18.5707	0.0000	0.0000	0.0000	0.0000	0.0000;
	3002043	3002016	0.00593	0.02614	0.01217	187	0	0	0	0	1	0	0	47.8983	0.0000	-47.8983	0.0000	0.0000	0.0000	0.0000	0.0000;
	3002069	3002016	0.0084	0.03705	0.01725	187	0	0	0	0	1	0	0	21.3717	0.0000	-21.3717	0.0000	0.0000	0.0000	0.0000	0.0000;
	3002018	3002017	0.00048	0.05045	0	271	0	0	1	0	1	0	0	143.4836	0.0000	-143.4836	0.0000	0.0000	0.0000	0.0000	0.0000;
	3002019	3002017	0.0002	0.01182	0	454	0	0	1	0	1	0	0	218.0000	0.0000	-218.0000	0.0000	0.0000	0.0000	0.0000	0.0000;
	3002017	3002096	0.00253	0.03068	2.03836	2020	0	0	0	0	1	0	0	-374.2425	0.0000	374.2425	0.0000	0.0000	0.0000	0.0000	0.0000;
	3002017	3002127	0.00089	0.01081	0.71846	2020	0	0	0	0	1	0	0	735.7261	0.0000	-735.7261	0.0000	0.0000	0.0000	0.0000	0.0000;
	3002018	3002093	0.01163	0.05125	0.02386	187	0	0	0	0	1	0	0	-143.4836	0.0000	143.4836	0.0000	0.0000	0.0000	0.0000	0.0000;
	3002045	3002020	0.00097	0.00548	0.00295	310	0	0	0	0	1	0	0	-171.7203	0.0000	171.7203	0.0000	0.0000	0.0000	0.0000	0.0000;
	3002055	3002020	0.00102	0.00744	0.00422	409	0	0	0	0	1	0	0	219.6903	0.0000	-219.6903	0.0000	0.0000	0.0000	0.0000	0.0000;
	3002022	3002021	0.00034	0.01888	0	867	0	0	1	0	1	0	0	-166.0908	0.0000	166.0908	0.0000	0.0000	0.0000	0.0000	0.0000;
	3002023	3002021	0.00054	0.03406	0	319	0	0	1	0	1	0	0	25.0000	0.0000	-25.0000	0.0000	0.0000	0.0000	0.0000	0.0000;
	3002024	3002021	0.00036	0.02425	0	391	0	0	1	0	1	0	0	50.0000	0.0000	-50.0000	0.0000	0.0000	0.0000	0.0000	0.0000;
...